# Makefile.in generated by automake 1.14.1 from Makefile.am.
# @configure_input@

# Copyright (C) 1994-2013 Free Software Foundation, Inc.

# This Makefile.in is free software; the Free Software Foundation
# gives unlimited permission to copy and/or distribute it,
# with or without modifications, as long as this notice is preserved.

# This program is distributed in the hope that it will be useful,
# but WITHOUT ANY WARRANTY, to the extent permitted by law; without
# even the implied warranty of MERCHANTABILITY or FITNESS FOR A
# PARTICULAR PURPOSE.

@SET_MAKE@

#-------------------------------------------------------------------------------

# This file is part of Code_Saturne, a general-purpose CFD tool.
#
# Copyright (C) 1998-2016 EDF S.A.
#
# This program is free software; you can redistribute it and/or modify it under
# the terms of the GNU General Public License as published by the Free Software
# Foundation; either version 2 of the License, or (at your option) any later
# version.
#
# This program is distributed in the hope that it will be useful, but WITHOUT
# ANY WARRANTY; without even the implied warranty of MERCHANTABILITY or FITNESS
# FOR A PARTICULAR PURPOSE.  See the GNU General Public License for more
# details.
#
# You should have received a copy of the GNU General Public License along with
# this program; if not, write to the Free Software Foundation, Inc., 51 Franklin
# Street, Fifth Floor, Boston, MA 02110-1301, USA.

#-------------------------------------------------------------------------------



VPATH = @srcdir@
am__is_gnu_make = test -n '$(MAKEFILE_LIST)' && test -n '$(MAKELEVEL)'
am__make_running_with_option = \
  case $${target_option-} in \
      ?) ;; \
      *) echo "am__make_running_with_option: internal error: invalid" \
              "target option '$${target_option-}' specified" >&2; \
         exit 1;; \
  esac; \
  has_opt=no; \
  sane_makeflags=$$MAKEFLAGS; \
  if $(am__is_gnu_make); then \
    sane_makeflags=$$MFLAGS; \
  else \
    case $$MAKEFLAGS in \
      *\\[\ \	]*) \
        bs=\\; \
        sane_makeflags=`printf '%s\n' "$$MAKEFLAGS" \
          | sed "s/$$bs$$bs[$$bs $$bs	]*//g"`;; \
    esac; \
  fi; \
  skip_next=no; \
  strip_trailopt () \
  { \
    flg=`printf '%s\n' "$$flg" | sed "s/$$1.*$$//"`; \
  }; \
  for flg in $$sane_makeflags; do \
    test $$skip_next = yes && { skip_next=no; continue; }; \
    case $$flg in \
      *=*|--*) continue;; \
        -*I) strip_trailopt 'I'; skip_next=yes;; \
      -*I?*) strip_trailopt 'I';; \
        -*O) strip_trailopt 'O'; skip_next=yes;; \
      -*O?*) strip_trailopt 'O';; \
        -*l) strip_trailopt 'l'; skip_next=yes;; \
      -*l?*) strip_trailopt 'l';; \
      -[dEDm]) skip_next=yes;; \
      -[JT]) skip_next=yes;; \
    esac; \
    case $$flg in \
      *$$target_option*) has_opt=yes; break;; \
    esac; \
  done; \
  test $$has_opt = yes
am__make_dryrun = (target_option=n; $(am__make_running_with_option))
am__make_keepgoing = (target_option=k; $(am__make_running_with_option))
pkgdatadir = $(datadir)/@PACKAGE@
pkgincludedir = $(includedir)/@PACKAGE@
pkglibdir = $(libdir)/@PACKAGE@
pkglibexecdir = $(libexecdir)/@PACKAGE@
am__cd = CDPATH="$${ZSH_VERSION+.}$(PATH_SEPARATOR)" && cd
install_sh_DATA = $(install_sh) -c -m 644
install_sh_PROGRAM = $(install_sh) -c
install_sh_SCRIPT = $(install_sh) -c
INSTALL_HEADER = $(INSTALL_DATA)
transform = $(program_transform_name)
NORMAL_INSTALL = :
PRE_INSTALL = :
POST_INSTALL = :
NORMAL_UNINSTALL = :
PRE_UNINSTALL = :
POST_UNINSTALL = :
build_triplet = @build@
host_triplet = @host@
target_triplet = @target@
subdir = .
DIST_COMMON = $(srcdir)/Makefile.in $(srcdir)/Makefile.am \
	$(top_srcdir)/configure $(am__configure_deps) \
	$(srcdir)/cs_config.h.in \
	$(top_srcdir)/docs/style/csvers.tex.in \
	$(top_srcdir)/extras/salome/fsi_appli_config.xml.in \
	$(top_srcdir)/extras/windows/innosetup/setup_mingw.iss.in \
	$(top_srcdir)/extras/windows/innosetup/setup_cygwin32.iss.in \
	$(top_srcdir)/extras/windows/innosetup/setup_cygwin64.iss.in \
	$(top_srcdir)/bin/cs_config.py.in $(dist_pkgdata_SCRIPTS) \
	$(autovnv_PYTHON) $(dist_pkgpython_PYTHON) \
	$(top_srcdir)/build-aux/py-compile $(dist_man_MANS) \
	$(dist_pkgdata_DATA) $(dist_salome_DATA) \
	$(nobase_dist_pkgdata_DATA) ABOUT-NLS AUTHORS COPYING \
	ChangeLog INSTALL NEWS README build-aux/ar-lib \
	build-aux/compile build-aux/config.guess \
	build-aux/config.rpath build-aux/config.sub build-aux/depcomp \
	build-aux/install-sh build-aux/missing build-aux/py-compile \
	build-aux/ylwrap build-aux/ltmain.sh \
	$(top_srcdir)/build-aux/ar-lib $(top_srcdir)/build-aux/compile \
	$(top_srcdir)/build-aux/config.guess \
	$(top_srcdir)/build-aux/config.rpath \
	$(top_srcdir)/build-aux/config.sub \
	$(top_srcdir)/build-aux/install-sh \
	$(top_srcdir)/build-aux/ltmain.sh \
	$(top_srcdir)/build-aux/missing
ACLOCAL_M4 = $(top_srcdir)/aclocal.m4
am__aclocal_m4_deps = $(top_srcdir)/m4/acx_pthread.m4 \
	$(top_srcdir)/m4/cs_blas.m4 $(top_srcdir)/m4/cs_catalyst.m4 \
	$(top_srcdir)/m4/cs_ccm.m4 $(top_srcdir)/m4/cs_cgns.m4 \
	$(top_srcdir)/m4/cs_docs.m4 $(top_srcdir)/m4/cs_eos.m4 \
	$(top_srcdir)/m4/cs_fortran.m4 \
	$(top_srcdir)/m4/cs_freesteam.m4 $(top_srcdir)/m4/cs_hdf5.m4 \
	$(top_srcdir)/m4/cs_libxml2.m4 $(top_srcdir)/m4/cs_med.m4 \
	$(top_srcdir)/m4/cs_metis.m4 $(top_srcdir)/m4/cs_modules.m4 \
	$(top_srcdir)/m4/cs_mpi.m4 $(top_srcdir)/m4/cs_omniorb.m4 \
	$(top_srcdir)/m4/cs_ple.m4 $(top_srcdir)/m4/cs_salome.m4 \
	$(top_srcdir)/m4/cs_scotch.m4 $(top_srcdir)/m4/cs_zlib.m4 \
	$(top_srcdir)/m4/gettext.m4 $(top_srcdir)/m4/iconv.m4 \
	$(top_srcdir)/m4/intlmacosx.m4 $(top_srcdir)/m4/lib-ld.m4 \
	$(top_srcdir)/m4/lib-link.m4 $(top_srcdir)/m4/lib-prefix.m4 \
	$(top_srcdir)/m4/libtool.m4 $(top_srcdir)/m4/ltoptions.m4 \
	$(top_srcdir)/m4/ltsugar.m4 $(top_srcdir)/m4/ltversion.m4 \
	$(top_srcdir)/m4/lt~obsolete.m4 $(top_srcdir)/m4/nls.m4 \
	$(top_srcdir)/m4/po.m4 $(top_srcdir)/m4/progtest.m4 \
	$(top_srcdir)/configure.ac
am__configure_deps = $(am__aclocal_m4_deps) $(CONFIGURE_DEPENDENCIES) \
	$(ACLOCAL_M4)
am__CONFIG_DISTCLEAN_FILES = config.status config.cache config.log \
 configure.lineno config.status.lineno
mkinstalldirs = $(install_sh) -d
CONFIG_HEADER = cs_config.h
CONFIG_CLEAN_FILES = docs/style/csvers.tex \
	extras/salome/fsi_appli_config.xml \
	extras/windows/innosetup/setup_mingw.iss \
	extras/windows/innosetup/setup_cygwin32.iss \
	extras/windows/innosetup/setup_cygwin64.iss bin/cs_config.py
CONFIG_CLEAN_VPATH_FILES =
am__vpath_adj_setup = srcdirstrip=`echo "$(srcdir)" | sed 's|.|.|g'`;
am__vpath_adj = case $$p in \
    $(srcdir)/*) f=`echo "$$p" | sed "s|^$$srcdirstrip/||"`;; \
    *) f=$$p;; \
  esac;
am__strip_dir = f=`echo $$p | sed -e 's|^.*/||'`;
am__install_max = 40
am__nobase_strip_setup = \
  srcdirstrip=`echo "$(srcdir)" | sed 's/[].[^$$\\*|]/\\\\&/g'`
am__nobase_strip = \
  for p in $$list; do echo "$$p"; done | sed -e "s|$$srcdirstrip/||"
am__nobase_list = $(am__nobase_strip_setup); \
  for p in $$list; do echo "$$p $$p"; done | \
  sed "s| $$srcdirstrip/| |;"' / .*\//!s/ .*/ ./; s,\( .*\)/[^/]*$$,\1,' | \
  $(AWK) 'BEGIN { files["."] = "" } { files[$$2] = files[$$2] " " $$1; \
    if (++n[$$2] == $(am__install_max)) \
      { print $$2, files[$$2]; n[$$2] = 0; files[$$2] = "" } } \
    END { for (dir in files) print dir, files[dir] }'
am__base_list = \
  sed '$$!N;$$!N;$$!N;$$!N;$$!N;$$!N;$$!N;s/\n/ /g' | \
  sed '$$!N;$$!N;$$!N;$$!N;s/\n/ /g'
am__uninstall_files_from_dir = { \
  test -z "$$files" \
    || { test ! -d "$$dir" && test ! -f "$$dir" && test ! -r "$$dir"; } \
    || { echo " ( cd '$$dir' && rm -f" $$files ")"; \
         $(am__cd) "$$dir" && rm -f $$files; }; \
  }
am__installdirs = "$(DESTDIR)$(pkgdatadir)" "$(DESTDIR)$(bindir)" \
	"$(DESTDIR)$(autovnvdir)" "$(DESTDIR)$(pkgpythondir)" \
	"$(DESTDIR)$(pkgpythondir)" "$(DESTDIR)$(man1dir)" \
	"$(DESTDIR)$(bashcompletiondir)" "$(DESTDIR)$(batchdir)" \
	"$(DESTDIR)$(pkgdatadir)" "$(DESTDIR)$(salomedir)" \
	"$(DESTDIR)$(pkgdatadir)" "$(DESTDIR)$(salomesysconfdir)" \
	"$(DESTDIR)$(sysconfdir)" "$(DESTDIR)$(pkgincludedir)"
SCRIPTS = $(dist_pkgdata_SCRIPTS) $(nodist_bin_SCRIPTS)
AM_V_P = $(am__v_P_@AM_V@)
am__v_P_ = $(am__v_P_@AM_DEFAULT_V@)
am__v_P_0 = false
am__v_P_1 = :
AM_V_GEN = $(am__v_GEN_@AM_V@)
am__v_GEN_ = $(am__v_GEN_@AM_DEFAULT_V@)
am__v_GEN_0 = @echo "  GEN     " $@;
am__v_GEN_1 = 
AM_V_at = $(am__v_at_@AM_V@)
am__v_at_ = $(am__v_at_@AM_DEFAULT_V@)
am__v_at_0 = @
am__v_at_1 = 
SOURCES =
DIST_SOURCES =
RECURSIVE_TARGETS = all-recursive check-recursive cscopelist-recursive \
	ctags-recursive dvi-recursive html-recursive info-recursive \
	install-data-recursive install-dvi-recursive \
	install-exec-recursive install-html-recursive \
	install-info-recursive install-pdf-recursive \
	install-ps-recursive install-recursive installcheck-recursive \
	installdirs-recursive pdf-recursive ps-recursive \
	tags-recursive uninstall-recursive
am__can_run_installinfo = \
  case $$AM_UPDATE_INFO_DIR in \
    n|no|NO) false;; \
    *) (install-info --version) >/dev/null 2>&1;; \
  esac
am__py_compile = PYTHON=$(PYTHON) $(SHELL) $(py_compile)
am__pep3147_tweak = \
  sed -e 's|\.py$$||' -e 's|[^/]*$$|__pycache__/&.*.py|'
py_compile = $(top_srcdir)/build-aux/py-compile
man1dir = $(mandir)/man1
NROFF = nroff
MANS = $(dist_man_MANS)
DATA = $(bashcompletion_DATA) $(batch_DATA) $(dist_pkgdata_DATA) \
	$(dist_salome_DATA) $(nobase_dist_pkgdata_DATA) \
	$(nodist_salomesysconf_DATA) $(sysconf_DATA)
HEADERS = $(nodist_pkginclude_HEADERS)
RECURSIVE_CLEAN_TARGETS = mostlyclean-recursive clean-recursive	\
  distclean-recursive maintainer-clean-recursive
am__recursive_targets = \
  $(RECURSIVE_TARGETS) \
  $(RECURSIVE_CLEAN_TARGETS) \
  $(am__extra_recursive_targets)
AM_RECURSIVE_TARGETS = $(am__recursive_targets:-recursive=) TAGS CTAGS \
	cscope distdir dist dist-all distcheck
am__tagged_files = $(HEADERS) $(SOURCES) $(TAGS_FILES) \
	$(LISP)cs_config.h.in
# Read a list of newline-separated strings from the standard input,
# and print each of them once, without duplicates.  Input order is
# *not* preserved.
am__uniquify_input = $(AWK) '\
  BEGIN { nonempty = 0; } \
  { items[$$0] = 1; nonempty = 1; } \
  END { if (nonempty) { for (i in items) print i; }; } \
'
# Make sure the list of sources is unique.  This is necessary because,
# e.g., the same source file might be shared among _SOURCES variables
# for different programs/libraries.
am__define_uniq_tagged_files = \
  list='$(am__tagged_files)'; \
  unique=`for i in $$list; do \
    if test -f "$$i"; then echo $$i; else echo $(srcdir)/$$i; fi; \
  done | $(am__uniquify_input)`
ETAGS = etags
CTAGS = ctags
CSCOPE = cscope
DIST_SUBDIRS = . libple preprocessor src salome po docs gui tests
DISTFILES = $(DIST_COMMON) $(DIST_SOURCES) $(TEXINFOS) $(EXTRA_DIST)
distdir = $(PACKAGE)-$(VERSION)
top_distdir = $(distdir)
am__remove_distdir = \
  if test -d "$(distdir)"; then \
    find "$(distdir)" -type d ! -perm -200 -exec chmod u+w {} ';' \
      && rm -rf "$(distdir)" \
      || { sleep 5 && rm -rf "$(distdir)"; }; \
  else :; fi
am__post_remove_distdir = $(am__remove_distdir)
am__relativize = \
  dir0=`pwd`; \
  sed_first='s,^\([^/]*\)/.*$$,\1,'; \
  sed_rest='s,^[^/]*/*,,'; \
  sed_last='s,^.*/\([^/]*\)$$,\1,'; \
  sed_butlast='s,/*[^/]*$$,,'; \
  while test -n "$$dir1"; do \
    first=`echo "$$dir1" | sed -e "$$sed_first"`; \
    if test "$$first" != "."; then \
      if test "$$first" = ".."; then \
        dir2=`echo "$$dir0" | sed -e "$$sed_last"`/"$$dir2"; \
        dir0=`echo "$$dir0" | sed -e "$$sed_butlast"`; \
      else \
        first2=`echo "$$dir2" | sed -e "$$sed_first"`; \
        if test "$$first2" = "$$first"; then \
          dir2=`echo "$$dir2" | sed -e "$$sed_rest"`; \
        else \
          dir2="../$$dir2"; \
        fi; \
        dir0="$$dir0"/"$$first"; \
      fi; \
    fi; \
    dir1=`echo "$$dir1" | sed -e "$$sed_rest"`; \
  done; \
  reldir="$$dir2"
DIST_ARCHIVES = $(distdir).tar.gz
GZIP_ENV = --best
DIST_TARGETS = dist-gzip
distuninstallcheck_listfiles = find . -type f -print
am__distuninstallcheck_listfiles = $(distuninstallcheck_listfiles) \
  | sed 's|^\./|$(prefix)/|' | grep -v '$(infodir)/dir$$'
distcleancheck_listfiles = find . -type f -print
ACLOCAL = @ACLOCAL@
AMTAR = @AMTAR@
AM_DEFAULT_VERBOSITY = @AM_DEFAULT_VERBOSITY@
AR = @AR@
AS = @AS@
AUTOCONF = @AUTOCONF@
AUTOHEADER = @AUTOHEADER@
AUTOMAKE = @AUTOMAKE@
AWK = @AWK@
BIBTEX = @BIBTEX@
BLASRUNPATH = @BLASRUNPATH@
BLAS_CPPFLAGS = @BLAS_CPPFLAGS@
BLAS_LDFLAGS = @BLAS_LDFLAGS@
BLAS_LIBS = @BLAS_LIBS@
CALCIUM_LIBS = @CALCIUM_LIBS@
CATALYSTRUNPATH = @CATALYSTRUNPATH@
CATALYST_CPPFLAGS = @CATALYST_CPPFLAGS@
CATALYST_CXXFLAGS = @CATALYST_CXXFLAGS@
CATALYST_LDFLAGS = @CATALYST_LDFLAGS@
CATALYST_LIBS = @CATALYST_LIBS@
CC = @CC@
CCDEPMODE = @CCDEPMODE@
CCMRUNPATH = @CCMRUNPATH@
CCM_CPPFLAGS = @CCM_CPPFLAGS@
CCM_LDFLAGS = @CCM_LDFLAGS@
CCM_LIBS = @CCM_LIBS@
CFLAGS = @CFLAGS@
CFLAGS_DBG = @CFLAGS_DBG@
CFLAGS_HOT = @CFLAGS_HOT@
CFLAGS_OPT = @CFLAGS_OPT@
CGNSRUNPATH = @CGNSRUNPATH@
CGNS_CPPFLAGS = @CGNS_CPPFLAGS@
CGNS_LDFLAGS = @CGNS_LDFLAGS@
CGNS_LIBS = @CGNS_LIBS@
CMAKE = @CMAKE@
CORBA_CXXFLAGS = @CORBA_CXXFLAGS@
CORBA_INCLUDES = @CORBA_INCLUDES@
CORBA_LIBS = @CORBA_LIBS@
CORBA_ROOT = @CORBA_ROOT@
CPP = @CPP@
CPPFLAGS = @CPPFLAGS@
CS_LD = @CS_LD@
CXX = @CXX@
CXXCPP = @CXXCPP@
CXXDEPMODE = @CXXDEPMODE@
CXXFLAGS = @CXXFLAGS@
CXXFLAGS_DBG = @CXXFLAGS_DBG@
CXXFLAGS_HOT = @CXXFLAGS_HOT@
CXXFLAGS_OPT = @CXXFLAGS_OPT@
CYGPATH_W = @CYGPATH_W@
DEFS = @DEFS@
DEPDIR = @DEPDIR@
DLLTOOL = @DLLTOOL@
DOT = @DOT@
DOXYGEN = @DOXYGEN@
DSYMUTIL = @DSYMUTIL@
DUMPBIN = @DUMPBIN@
ECHO_C = @ECHO_C@
ECHO_N = @ECHO_N@
ECHO_T = @ECHO_T@
EGREP = @EGREP@
EOSRUNPATH = @EOSRUNPATH@
EOS_CPPFLAGS = @EOS_CPPFLAGS@
EOS_LDFLAGS = @EOS_LDFLAGS@
EOS_LIBS = @EOS_LIBS@
EXEEXT = @EXEEXT@
FC = @FC@
FCFLAGS = @FCFLAGS@
FCFLAGS_DBG = @FCFLAGS_DBG@
FCFLAGS_HOT = @FCFLAGS_HOT@
FCFLAGS_OPT = @FCFLAGS_OPT@
FCLIBS = @FCLIBS@
FCMODEXT = @FCMODEXT@
FCMODINCLUDE = @FCMODINCLUDE@
FGREP = @FGREP@
FIG2DEV = @FIG2DEV@
FREESTEAMRUNPATH = @FREESTEAMRUNPATH@
FREESTEAM_CPPFLAGS = @FREESTEAM_CPPFLAGS@
FREESTEAM_LDFLAGS = @FREESTEAM_LDFLAGS@
FREESTEAM_LIBS = @FREESTEAM_LIBS@
GETTEXT_MACRO_VERSION = @GETTEXT_MACRO_VERSION@
GMSGFMT = @GMSGFMT@
GMSGFMT_015 = @GMSGFMT_015@
GREP = @GREP@
HDF5RUNPATH = @HDF5RUNPATH@
HDF5_CPPFLAGS = @HDF5_CPPFLAGS@
HDF5_CPPFLAGS_MPI = @HDF5_CPPFLAGS_MPI@
HDF5_LDFLAGS = @HDF5_LDFLAGS@
HDF5_LDFLAGS_MPI = @HDF5_LDFLAGS_MPI@
HDF5_LIBS = @HDF5_LIBS@
HDF5_LIBS_MPI = @HDF5_LIBS_MPI@
IDL = @IDL@
IDLCXXFLAGS = @IDLCXXFLAGS@
IDLPYFLAGS = @IDLPYFLAGS@
IDL_CLN_CXX = @IDL_CLN_CXX@
IDL_CLN_H = @IDL_CLN_H@
IDL_CLN_OBJ = @IDL_CLN_OBJ@
IDL_SRV_CXX = @IDL_SRV_CXX@
IDL_SRV_H = @IDL_SRV_H@
IDL_SRV_OBJ = @IDL_SRV_OBJ@
INSTALL = @INSTALL@
INSTALL_DATA = @INSTALL_DATA@
INSTALL_PROGRAM = @INSTALL_PROGRAM@
INSTALL_SCRIPT = @INSTALL_SCRIPT@
INSTALL_STRIP_PROGRAM = @INSTALL_STRIP_PROGRAM@
INTLLIBS = @INTLLIBS@
INTL_MACOSX_LIBS = @INTL_MACOSX_LIBS@
LD = @LD@
LDFLAGS = @LDFLAGS@
LDRPATH = @LDRPATH@
LEX = @LEX@
LEXLIB = @LEXLIB@
LEX_OUTPUT_ROOT = @LEX_OUTPUT_ROOT@
LIBICONV = @LIBICONV@
LIBINTL = @LIBINTL@
LIBOBJS = @LIBOBJS@
LIBS = @LIBS@
LIBTOOL = @LIBTOOL@
LIBXML2_CPPFLAGS = @LIBXML2_CPPFLAGS@
LIBXML2_LDFLAGS = @LIBXML2_LDFLAGS@
LIBXML2_LIBS = @LIBXML2_LIBS@
LIPO = @LIPO@
LN_S = @LN_S@
LRELEASE = @LRELEASE@
LTLIBICONV = @LTLIBICONV@
LTLIBINTL = @LTLIBINTL@
LTLIBOBJS = @LTLIBOBJS@
MAINT = @MAINT@
MAKEINDEX = @MAKEINDEX@
MAKEINFO = @MAKEINFO@
MANIFEST_TOOL = @MANIFEST_TOOL@
MEDCOUPLINGRUNPATH = @MEDCOUPLINGRUNPATH@
MEDCOUPLING_CPPFLAGS = @MEDCOUPLING_CPPFLAGS@
MEDCOUPLING_LDFLAGS = @MEDCOUPLING_LDFLAGS@
MEDCOUPLING_LIBS = @MEDCOUPLING_LIBS@
MEDRUNPATH = @MEDRUNPATH@
MED_CPPFLAGS = @MED_CPPFLAGS@
MED_LDFLAGS = @MED_LDFLAGS@
MED_LIBS = @MED_LIBS@
METISRUNPATH = @METISRUNPATH@
METIS_CPPFLAGS = @METIS_CPPFLAGS@
METIS_LDFLAGS = @METIS_LDFLAGS@
METIS_LIBS = @METIS_LIBS@
MKDIR_P = @MKDIR_P@
MOC = @MOC@
MODULECMD = @MODULECMD@
MPI_CPPFLAGS = @MPI_CPPFLAGS@
MPI_LDFLAGS = @MPI_LDFLAGS@
MPI_LIBS = @MPI_LIBS@
MSGFMT = @MSGFMT@
MSGFMT_015 = @MSGFMT_015@
MSGMERGE = @MSGMERGE@
NM = @NM@
NMEDIT = @NMEDIT@
OBJDUMP = @OBJDUMP@
OBJEXT = @OBJEXT@
OMNIIDL = @OMNIIDL@
OMNIIDLLDLIBPATH = @OMNIIDLLDLIBPATH@
OMNIIDLPYBE = @OMNIIDLPYBE@
OMNIIDLPYTHONPATH = @OMNIIDLPYTHONPATH@
OMNIORB_CXXFLAGS = @OMNIORB_CXXFLAGS@
OMNIORB_IDLCXXFLAGS = @OMNIORB_IDLCXXFLAGS@
OMNIORB_IDLPYFLAGS = @OMNIORB_IDLPYFLAGS@
OMNIORB_IDL_CLN_CXX = @OMNIORB_IDL_CLN_CXX@
OMNIORB_IDL_CLN_H = @OMNIORB_IDL_CLN_H@
OMNIORB_IDL_CLN_OBJ = @OMNIORB_IDL_CLN_OBJ@
OMNIORB_IDL_SRV_CXX = @OMNIORB_IDL_SRV_CXX@
OMNIORB_IDL_SRV_H = @OMNIORB_IDL_SRV_H@
OMNIORB_IDL_SRV_OBJ = @OMNIORB_IDL_SRV_OBJ@
OMNIORB_IDL_TIE_CXX = @OMNIORB_IDL_TIE_CXX@
OMNIORB_IDL_TIE_H = @OMNIORB_IDL_TIE_H@
OMNIORB_INCLUDES = @OMNIORB_INCLUDES@
OMNIORB_LIBS = @OMNIORB_LIBS@
OMNIORB_ROOT = @OMNIORB_ROOT@
OTOOL = @OTOOL@
OTOOL64 = @OTOOL64@
PACKAGE = @PACKAGE@
PACKAGE_BUGREPORT = @PACKAGE_BUGREPORT@
PACKAGE_NAME = @PACKAGE_NAME@
PACKAGE_STRING = @PACKAGE_STRING@
PACKAGE_TARNAME = @PACKAGE_TARNAME@
PACKAGE_URL = @PACKAGE_URL@
PACKAGE_VERSION = @PACKAGE_VERSION@
PARAMEDMEM_CPPFLAGS = @PARAMEDMEM_CPPFLAGS@
PARAMEDMEM_LDFLAGS = @PARAMEDMEM_LDFLAGS@
PARAMEDMEM_LIBS = @PARAMEDMEM_LIBS@
PATH_SEPARATOR = @PATH_SEPARATOR@
PDFLATEX = @PDFLATEX@
PLE_CPPFLAGS = @PLE_CPPFLAGS@
PLE_LDFLAGS = @PLE_LDFLAGS@
PLE_LIBS = @PLE_LIBS@
POSUB = @POSUB@
POW_LIB = @POW_LIB@
PTHREAD_CC = @PTHREAD_CC@
PTHREAD_CFLAGS = @PTHREAD_CFLAGS@
PTHREAD_LIBS = @PTHREAD_LIBS@
PYRCC4 = @PYRCC4@
PYTHON = @PYTHON@
PYTHON_EXEC_PREFIX = @PYTHON_EXEC_PREFIX@
PYTHON_PLATFORM = @PYTHON_PLATFORM@
PYTHON_PREFIX = @PYTHON_PREFIX@
PYTHON_VERSION = @PYTHON_VERSION@
PYUIC4 = @PYUIC4@
RANLIB = @RANLIB@
SALOMEENVCMD = @SALOMEENVCMD@
SALOMEPRE = @SALOMEPRE@
SALOMERUN = @SALOMERUN@
SALOME_GUI = @SALOME_GUI@
SALOME_GUI_CPPFLAGS = @SALOME_GUI_CPPFLAGS@
SALOME_GUI_IDL = @SALOME_GUI_IDL@
SALOME_GUI_LDFLAGS = @SALOME_GUI_LDFLAGS@
SALOME_GUI_LIBS = @SALOME_GUI_LIBS@
SALOME_KERNEL = @SALOME_KERNEL@
SALOME_KERNEL_CPPFLAGS = @SALOME_KERNEL_CPPFLAGS@
SALOME_KERNEL_IDL = @SALOME_KERNEL_IDL@
SALOME_KERNEL_LDFLAGS = @SALOME_KERNEL_LDFLAGS@
SALOME_KERNEL_LIBS = @SALOME_KERNEL_LIBS@
SALOME_YACS = @SALOME_YACS@
SALOME_YACS_CPPFLAGS = @SALOME_YACS_CPPFLAGS@
SALOME_YACS_IDL = @SALOME_YACS_IDL@
SALOME_YACS_LDFLAGS = @SALOME_YACS_LDFLAGS@
SALOME_YACS_LIBS = @SALOME_YACS_LIBS@
SCOTCHRUNPATH = @SCOTCHRUNPATH@
SCOTCH_CPPFLAGS = @SCOTCH_CPPFLAGS@
SCOTCH_LDFLAGS = @SCOTCH_LDFLAGS@
SCOTCH_LIBS = @SCOTCH_LIBS@
SED = @SED@
SET_MAKE = @SET_MAKE@
SHELL = @SHELL@
SPHINXBUILD = @SPHINXBUILD@
STRIP = @STRIP@
USE_NLS = @USE_NLS@
VERSION = @VERSION@
XGETTEXT = @XGETTEXT@
XGETTEXT_015 = @XGETTEXT_015@
XGETTEXT_EXTRA_OPTIONS = @XGETTEXT_EXTRA_OPTIONS@
YACC = @YACC@
YFLAGS = @YFLAGS@
abs_builddir = @abs_builddir@
abs_srcdir = @abs_srcdir@
abs_top_builddir = @abs_top_builddir@
abs_top_srcdir = @abs_top_srcdir@
ac_ct_AR = @ac_ct_AR@
ac_ct_CC = @ac_ct_CC@
ac_ct_CXX = @ac_ct_CXX@
ac_ct_DUMPBIN = @ac_ct_DUMPBIN@
ac_ct_FC = @ac_ct_FC@
acx_pthread_config = @acx_pthread_config@
am__include = @am__include@
am__leading_dot = @am__leading_dot@
am__quote = @am__quote@
am__tar = @am__tar@
am__untar = @am__untar@
bindir = @bindir@
build = @build@
build_alias = @build_alias@
build_cpu = @build_cpu@
build_os = @build_os@
build_vendor = @build_vendor@
builddir = @builddir@
ccversion = @ccversion@
cgns_prefix = @cgns_prefix@
cs_env_modules = @cs_env_modules@
cs_have_blas = @cs_have_blas@
cs_have_calcium = @cs_have_calcium@
cs_have_catalyst = @cs_have_catalyst@
cs_have_ccm = @cs_have_ccm@
cs_have_cgns = @cs_have_cgns@
cs_have_doxygen = @cs_have_doxygen@
cs_have_eos = @cs_have_eos@
cs_have_freesteam = @cs_have_freesteam@
cs_have_frontend = @cs_have_frontend@
cs_have_gui = @cs_have_gui@
cs_have_hdf5 = @cs_have_hdf5@
cs_have_latex = @cs_have_latex@
cs_have_libxml2 = @cs_have_libxml2@
cs_have_long_gnum = @cs_have_long_gnum@
cs_have_med = @cs_have_med@
cs_have_medcoupling = @cs_have_medcoupling@
cs_have_metis = @cs_have_metis@
cs_have_mpi = @cs_have_mpi@
cs_have_openmp = @cs_have_openmp@
cs_have_paramedmem = @cs_have_paramedmem@
cs_have_salome_gui = @cs_have_salome_gui@
cs_have_salome_kernel = @cs_have_salome_kernel@
cs_have_salome_yacs = @cs_have_salome_yacs@
cs_have_scotch = @cs_have_scotch@
cs_have_sphinx = @cs_have_sphinx@
cs_py_have_plugins = @cs_py_have_plugins@
cs_special_user_link = @cs_special_user_link@
cs_src_revision = @cs_src_revision@
cs_tex_path_end = @cs_tex_path_end@
cs_tex_path_sep = @cs_tex_path_sep@
cs_version = @cs_version@
cs_version_full = @cs_version_full@
cs_version_short = @cs_version_short@
datadir = @datadir@
datarootdir = @datarootdir@
debug = @debug@
docdir = @docdir@
dvidir = @dvidir@
enable_shared = @enable_shared@
eos_prefix = @eos_prefix@
exec_prefix = @exec_prefix@
freesteam_prefix = @freesteam_prefix@
hdf5_prefix = @hdf5_prefix@
host = @host@
host_alias = @host_alias@
host_cpu = @host_cpu@
host_os = @host_os@
host_vendor = @host_vendor@
htmldir = @htmldir@
includedir = @includedir@
infodir = @infodir@
install_sh = @install_sh@
libdir = @libdir@
libexecdir = @libexecdir@
libxml2_prefix = @libxml2_prefix@
localedir = @localedir@
localstatedir = @localstatedir@
mandir = @mandir@
med_prefix = @med_prefix@
metis_prefix = @metis_prefix@
mkdir_p = @mkdir_p@
mpi_bindir = @mpi_bindir@
mpi_libdir = @mpi_libdir@
mpi_prefix = @mpi_prefix@
mpi_type = @mpi_type@
oldincludedir = @oldincludedir@
pdfdir = @pdfdir@
pkgpyexecdir = @pkgpyexecdir@
pkgpythondir = @pkgpythondir@
ple_type = @ple_type@
prefix = @prefix@
profile = @profile@
program_transform_name = @program_transform_name@
psdir = @psdir@
pyexecdir = @pyexecdir@
pythondir = @pythondir@
pythonversion = @pythonversion@
relocatable = @relocatable@
sbindir = @sbindir@
scotch_prefix = @scotch_prefix@
sharedstatedir = @sharedstatedir@
srcdir = @srcdir@
subdirs = @subdirs@
sysconfdir = @sysconfdir@
target = @target@
target_alias = @target_alias@
target_cpu = @target_cpu@
target_os = @target_os@
target_vendor = @target_vendor@
top_build_prefix = @top_build_prefix@
top_builddir = @top_builddir@
top_srcdir = @top_srcdir@
win_prefix = @win_prefix@
@HAVE_GUI_TRUE@GUI = gui
@HAVE_FRONTEND_TRUE@PREPRO = preprocessor
@HAVE_INTERNAL_PLE_TRUE@PLE = libple
@HAVE_SALOME_TRUE@SALOME = salome
SUBDIRS = . $(PLE) $(PREPRO) src $(SALOME) po docs $(GUI) tests
AUX_DIST = \
build-aux/catalyst \
build-aux/cs_config_test.py \
build-aux/cs_version.py \
m4/codeset.m4 \
m4/fcntl-o.m4 \
m4/gettext.m4 \
m4/glibc21.m4 \
m4/glibc2.m4 \
m4/iconv.m4 \
m4/intdiv0.m4 \
m4/intldir.m4 \
m4/intl.m4 \
m4/intlmacosx.m4 \
m4/intmax.m4 \
m4/inttypes_h.m4 \
m4/inttypes-pri.m4 \
m4/lcmessage.m4 \
m4/lib-ld.m4 \
m4/lib-link.m4 \
m4/lib-prefix.m4 \
m4/libtool.m4 \
m4/lock.m4 \
m4/longlong.m4 \
m4/lt~obsolete.m4 \
m4/ltoptions.m4 \
m4/ltsugar.m4 \
m4/ltversion.m4 \
m4/nls.m4 \
m4/po.m4 \
m4/printf-posix.m4 \
m4/progtest.m4 \
m4/size_max.m4 \
m4/stdint_h.m4 \
m4/threadlib.m4 \
m4/uintmax_t.m4 \
m4/visibility.m4 \
m4/wchar_t.m4 \
m4/wint_t.m4 \
m4/xsize.m4

MAINTAINERCLEANFILES = \
$(AUX_DIST) \
aclocal.m4 \
configure \
build-aux/compile \
build-aux/config.guess \
build-aux/config.rpath \
build-aux/config.sub \
build-aux/depcomp \
build-aux/install-sh \
build-aux/ltmain.sh \
build-aux/missing \
build-aux/py-compile \
build-aux/ylwrap


# One adds several sub-directories and get rid of the .svn
# directories with a dist-hook. The reason for this trick is that
# the number of extra files or patches can grow and change a lot.
EXTRA_DIST = $(AUX_DIST) install_saturne.py QUALITY_ASSURANCE \
	po/Makevars.template po/Rules-install sbin/backup \
	sbin/bootstrap sbin/clean sbin/rmb config/cs_auto_flags.sh \
	m4/acx_pthread.m4 m4/cs_blas.m4 m4/cs_catalyst.m4 m4/cs_ccm.m4 \
	m4/cs_cgns.m4 m4/cs_docs.m4 m4/cs_freesteam.m4 \
	m4/cs_fortran.m4 m4/cs_hdf5.m4 m4/cs_libxml2.m4 m4/cs_med.m4 \
	m4/cs_metis.m4 m4/cs_modules.m4 m4/cs_mpi.m4 m4/cs_omniorb.m4 \
	m4/cs_ple.m4 m4/cs_salome.m4 m4/cs_scotch.m4 m4/cs_zlib.m4 \
	examples extras patches bin/code_saturne.in \
	bin/cs_package.py.in
nodist_pkginclude_HEADERS = cs_config.h
DISTCLEANFILES = \
bin/code_saturne \
bin/cs_package.py \
extras/salome/fsi_appli_config.xml \
cs_config.h

ACLOCAL_AMFLAGS = -I m4
@HAVE_RELOCATABLE_FALSE@PYTHON_SHEBANG = $(PYTHON)
@HAVE_RELOCATABLE_TRUE@PYTHON_SHEBANG = /usr/bin/env python

# Replace paths in Python scripts.
# The following command and targets are adapted from an example in
# autoconf. The autoconf documentation recommends changing scripts
# through Makefile targets rather than through configure, and
# cites its own automate and autoheader as examples.
edit_python = sed \
	-e 's|@PYTHON[@]|$(PYTHON_SHEBANG)|g' \
	-e 's|@pkgpythondir[@]|$(pkgpythondir)|g' \
	-e 's|@relocatable[@]|$(relocatable)|g'

edit_package = sed \
	-e 's|@prefix[@]|$(prefix)|g' \
	-e 's|@exec_prefix[@]|$(exec_prefix)|g' \
	-e 's|@bindir[@]|$(bindir)|g' \
	-e 's|@includedir[@]|$(includedir)|g' \
	-e 's|@pkgincludedir[@]|$(pkgincludedir)|g' \
	-e 's|@libdir[@]|$(libdir)|g' \
	-e 's|@libexecdir[@]|$(libexecdir)|g' \
	-e 's|@pkglibexecdir[@]|$(pkglibexecdir)|g' \
	-e 's|@pythondir[@]|$(pythondir)|g' \
	-e 's|@pkgpythondir[@]|$(pkgpythondir)|g' \
	-e 's|@localedir[@]|$(localedir)|g' \
	-e 's|@datarootdir[@]|$(datarootdir)|g' \
	-e 's|@datadir[@]|$(datadir)|g' \
	-e 's|@pkgdatadir[@]|$(pkgdatadir)|g' \
	-e 's|@docdir[@]|$(docdir)|g' \
	-e 's|@pdfdir[@]|$(pdfdir)|g' \
	-e 's|@sysconfdir[@]|$(sysconfdir)|g' \
	-e 's|@PACKAGE_NAME[@]|$(PACKAGE_NAME)|g' \
	-e 's|@PACKAGE_TARNAME[@]|$(PACKAGE_TARNAME)|g' \
	-e 's|@PACKAGE_VERSION[@]|$(PACKAGE_VERSION)|g' \
	-e 's|@PACKAGE_STRING[@]|$(PACKAGE_STRING)|g' \
	-e 's|@PACKAGE_BUGREPORT[@]|$(PACKAGE_BUGREPORT)|g' \
	-e 's|@PACKAGE_URL[@]|$(PACKAGE_URL)|g' \
	-e 's|@cs_src_revision[@]|$(cs_src_revision)|g' \
	-e 's|@cs_version[@]|$(cs_version)|g' \
	-e 's|@cs_version_full[@]|$(cs_version_full)|g' \
	-e 's|@cs_version_short[@]|$(cs_version_short)|g' \
	-e 's|@SALOME_KERNEL[@]|$(SALOME_KERNEL)|g' \
	-e 's|@SALOMEENVCMD[@]|$(SALOMEENVCMD)|g'

CLEANFILES = $(edit_scripts)

# Install binary scripts
nodist_bin_SCRIPTS = \
bin/code_saturne


# Install Python library
nodist_pkgpython_PYTHON = \
bin/cs_config.py \
bin/cs_package.py

dist_pkgpython_PYTHON = \
bin/__init__.py \
bin/cs_autovnv.py \
bin/cs_bdiff.py \
bin/cs_bdump.py \
bin/cs_case.py \
bin/cs_case_domain.py \
bin/cs_case_coupling.py \
bin/cs_compile.py \
bin/cs_create.py \
bin/cs_exec_environment.py \
bin/cs_gui.py \
bin/cs_info.py \
bin/cs_run.py \
bin/cs_runcase.py \
bin/cs_salome.py \
bin/cs_script.py \
bin/cs_xml_reader.py

autovnvdir = $(pkgpythondir)/autovnv
autovnv_PYTHON = \
bin/autovnv/Command.py \
bin/autovnv/Drawing.py \
bin/autovnv/__init__.py \
bin/autovnv/Parser.py \
bin/autovnv/PlotVTK.py \
bin/autovnv/Study.py \
bin/autovnv/TexMaker.py


# Install user scripts
salomesysconfdir = ${sysconfdir}/salome
@HAVE_SALOME_TRUE@nodist_salomesysconf_DATA = \
@HAVE_SALOME_TRUE@extras/salome/fsi_appli_config.xml

dist_pkgdata_DATA = \
bin/cs_user_scripts.py \
COPYING

dist_pkgdata_SCRIPTS = \
bin/runcase_mpi_rank


# Install thermochemistry and other data files
nobase_dist_pkgdata_DATA = \
data/thch/dp_C3P \
data/thch/dp_C3PSJ \
data/thch/dp_C4P \
data/thch/dp_ELE \
data/thch/dp_FCP.xml \
data/thch/dp_FUE \
data/thch/dp_transfo \
data/thch/JANAF \
data/thch/meteo


# Install batch cards for cluster management
batchdir = ${pkgdatadir}/batch
batch_DATA = \
extras/batch/batch.CCC \
extras/batch/batch.LOADL \
extras/batch/batch.LOADL_BG \
extras/batch/batch.LSF \
extras/batch/batch.OAR \
extras/batch/batch.PBS \
extras/batch/batch.SGE \
extras/batch/batch.SLURM \
extras/batch/batch.SLURM_BGQ


# Install man pages
dist_man_MANS = \
docs/manpages/code_saturne.1


# Install bash completion script
bashcompletiondir = ${sysconfdir}/bash_completion.d
bashcompletion_DATA = \
extras/bash_completion/code_saturne


# Install global option file
sysconf_DATA = \
extras/code_saturne.cfg.template


# Install SALOME related files
salomedir = ${pkgdatadir}/salome
dist_salome_DATA = \
extras/salome/fsi_yacs_scheme.xml \
extras/salome/fsi.export

all: cs_config.h
	$(MAKE) $(AM_MAKEFLAGS) all-recursive

.SUFFIXES:
am--refresh: Makefile
	@:
$(srcdir)/Makefile.in: @MAINTAINER_MODE_TRUE@ $(srcdir)/Makefile.am  $(am__configure_deps)
	@for dep in $?; do \
	  case '$(am__configure_deps)' in \
	    *$$dep*) \
	      echo ' cd $(srcdir) && $(AUTOMAKE) --foreign'; \
	      $(am__cd) $(srcdir) && $(AUTOMAKE) --foreign \
		&& exit 0; \
	      exit 1;; \
	  esac; \
	done; \
	echo ' cd $(top_srcdir) && $(AUTOMAKE) --foreign Makefile'; \
	$(am__cd) $(top_srcdir) && \
	  $(AUTOMAKE) --foreign Makefile
.PRECIOUS: Makefile
Makefile: $(srcdir)/Makefile.in $(top_builddir)/config.status
	@case '$?' in \
	  *config.status*) \
	    echo ' $(SHELL) ./config.status'; \
	    $(SHELL) ./config.status;; \
	  *) \
	    echo ' cd $(top_builddir) && $(SHELL) ./config.status $@ $(am__depfiles_maybe)'; \
	    cd $(top_builddir) && $(SHELL) ./config.status $@ $(am__depfiles_maybe);; \
	esac;

$(top_builddir)/config.status: $(top_srcdir)/configure $(CONFIG_STATUS_DEPENDENCIES)
	$(SHELL) ./config.status --recheck

$(top_srcdir)/configure: @MAINTAINER_MODE_TRUE@ $(am__configure_deps)
	$(am__cd) $(srcdir) && $(AUTOCONF)
$(ACLOCAL_M4): @MAINTAINER_MODE_TRUE@ $(am__aclocal_m4_deps)
	$(am__cd) $(srcdir) && $(ACLOCAL) $(ACLOCAL_AMFLAGS)
$(am__aclocal_m4_deps):

cs_config.h: stamp-h1
	@test -f $@ || rm -f stamp-h1
	@test -f $@ || $(MAKE) $(AM_MAKEFLAGS) stamp-h1

stamp-h1: $(srcdir)/cs_config.h.in $(top_builddir)/config.status
	@rm -f stamp-h1
	cd $(top_builddir) && $(SHELL) ./config.status cs_config.h
$(srcdir)/cs_config.h.in: @MAINTAINER_MODE_TRUE@ $(am__configure_deps) 
	($(am__cd) $(top_srcdir) && $(AUTOHEADER))
	rm -f stamp-h1
	touch $@

distclean-hdr:
	-rm -f cs_config.h stamp-h1
docs/style/csvers.tex: $(top_builddir)/config.status $(top_srcdir)/docs/style/csvers.tex.in
	cd $(top_builddir) && $(SHELL) ./config.status $@
extras/salome/fsi_appli_config.xml: $(top_builddir)/config.status $(top_srcdir)/extras/salome/fsi_appli_config.xml.in
	cd $(top_builddir) && $(SHELL) ./config.status $@
extras/windows/innosetup/setup_mingw.iss: $(top_builddir)/config.status $(top_srcdir)/extras/windows/innosetup/setup_mingw.iss.in
	cd $(top_builddir) && $(SHELL) ./config.status $@
extras/windows/innosetup/setup_cygwin32.iss: $(top_builddir)/config.status $(top_srcdir)/extras/windows/innosetup/setup_cygwin32.iss.in
	cd $(top_builddir) && $(SHELL) ./config.status $@
extras/windows/innosetup/setup_cygwin64.iss: $(top_builddir)/config.status $(top_srcdir)/extras/windows/innosetup/setup_cygwin64.iss.in
	cd $(top_builddir) && $(SHELL) ./config.status $@
bin/cs_config.py: $(top_builddir)/config.status $(top_srcdir)/bin/cs_config.py.in
	cd $(top_builddir) && $(SHELL) ./config.status $@
install-dist_pkgdataSCRIPTS: $(dist_pkgdata_SCRIPTS)
	@$(NORMAL_INSTALL)
	@list='$(dist_pkgdata_SCRIPTS)'; test -n "$(pkgdatadir)" || list=; \
	if test -n "$$list"; then \
	  echo " $(MKDIR_P) '$(DESTDIR)$(pkgdatadir)'"; \
	  $(MKDIR_P) "$(DESTDIR)$(pkgdatadir)" || exit 1; \
	fi; \
	for p in $$list; do \
	  if test -f "$$p"; then d=; else d="$(srcdir)/"; fi; \
	  if test -f "$$d$$p"; then echo "$$d$$p"; echo "$$p"; else :; fi; \
	done | \
	sed -e 'p;s,.*/,,;n' \
	    -e 'h;s|.*|.|' \
	    -e 'p;x;s,.*/,,;$(transform)' | sed 'N;N;N;s,\n, ,g' | \
	$(AWK) 'BEGIN { files["."] = ""; dirs["."] = 1; } \
	  { d=$$3; if (dirs[d] != 1) { print "d", d; dirs[d] = 1 } \
	    if ($$2 == $$4) { files[d] = files[d] " " $$1; \
	      if (++n[d] == $(am__install_max)) { \
		print "f", d, files[d]; n[d] = 0; files[d] = "" } } \
	    else { print "f", d "/" $$4, $$1 } } \
	  END { for (d in files) print "f", d, files[d] }' | \
	while read type dir files; do \
	     if test "$$dir" = .; then dir=; else dir=/$$dir; fi; \
	     test -z "$$files" || { \
	       echo " $(INSTALL_SCRIPT) $$files '$(DESTDIR)$(pkgdatadir)$$dir'"; \
	       $(INSTALL_SCRIPT) $$files "$(DESTDIR)$(pkgdatadir)$$dir" || exit $$?; \
	     } \
	; done

uninstall-dist_pkgdataSCRIPTS:
	@$(NORMAL_UNINSTALL)
	@list='$(dist_pkgdata_SCRIPTS)'; test -n "$(pkgdatadir)" || exit 0; \
	files=`for p in $$list; do echo "$$p"; done | \
	       sed -e 's,.*/,,;$(transform)'`; \
	dir='$(DESTDIR)$(pkgdatadir)'; $(am__uninstall_files_from_dir)
install-nodist_binSCRIPTS: $(nodist_bin_SCRIPTS)
	@$(NORMAL_INSTALL)
	@list='$(nodist_bin_SCRIPTS)'; test -n "$(bindir)" || list=; \
	if test -n "$$list"; then \
	  echo " $(MKDIR_P) '$(DESTDIR)$(bindir)'"; \
	  $(MKDIR_P) "$(DESTDIR)$(bindir)" || exit 1; \
	fi; \
	for p in $$list; do \
	  if test -f "$$p"; then d=; else d="$(srcdir)/"; fi; \
	  if test -f "$$d$$p"; then echo "$$d$$p"; echo "$$p"; else :; fi; \
	done | \
	sed -e 'p;s,.*/,,;n' \
	    -e 'h;s|.*|.|' \
	    -e 'p;x;s,.*/,,;$(transform)' | sed 'N;N;N;s,\n, ,g' | \
	$(AWK) 'BEGIN { files["."] = ""; dirs["."] = 1; } \
	  { d=$$3; if (dirs[d] != 1) { print "d", d; dirs[d] = 1 } \
	    if ($$2 == $$4) { files[d] = files[d] " " $$1; \
	      if (++n[d] == $(am__install_max)) { \
		print "f", d, files[d]; n[d] = 0; files[d] = "" } } \
	    else { print "f", d "/" $$4, $$1 } } \
	  END { for (d in files) print "f", d, files[d] }' | \
	while read type dir files; do \
	     if test "$$dir" = .; then dir=; else dir=/$$dir; fi; \
	     test -z "$$files" || { \
	       echo " $(INSTALL_SCRIPT) $$files '$(DESTDIR)$(bindir)$$dir'"; \
	       $(INSTALL_SCRIPT) $$files "$(DESTDIR)$(bindir)$$dir" || exit $$?; \
	     } \
	; done

uninstall-nodist_binSCRIPTS:
	@$(NORMAL_UNINSTALL)
	@list='$(nodist_bin_SCRIPTS)'; test -n "$(bindir)" || exit 0; \
	files=`for p in $$list; do echo "$$p"; done | \
	       sed -e 's,.*/,,;$(transform)'`; \
	dir='$(DESTDIR)$(bindir)'; $(am__uninstall_files_from_dir)

mostlyclean-libtool:
	-rm -f *.lo

clean-libtool:
	-rm -rf .libs _libs

distclean-libtool:
	-rm -f libtool config.lt
install-autovnvPYTHON: $(autovnv_PYTHON)
	@$(NORMAL_INSTALL)
	@list='$(autovnv_PYTHON)'; dlist=; list2=; test -n "$(autovnvdir)" || list=; \
	if test -n "$$list"; then \
	  echo " $(MKDIR_P) '$(DESTDIR)$(autovnvdir)'"; \
	  $(MKDIR_P) "$(DESTDIR)$(autovnvdir)" || exit 1; \
	fi; \
	for p in $$list; do \
	  if test -f "$$p"; then b=; else b="$(srcdir)/"; fi; \
	  if test -f $$b$$p; then \
	    $(am__strip_dir) \
	    dlist="$$dlist $$f"; \
	    list2="$$list2 $$b$$p"; \
	  else :; fi; \
	done; \
	for file in $$list2; do echo $$file; done | $(am__base_list) | \
	while read files; do \
	  echo " $(INSTALL_DATA) $$files '$(DESTDIR)$(autovnvdir)'"; \
	  $(INSTALL_DATA) $$files "$(DESTDIR)$(autovnvdir)" || exit $$?; \
	done || exit $$?; \
	if test -n "$$dlist"; then \
	  $(am__py_compile) --destdir "$(DESTDIR)" \
	                    --basedir "$(autovnvdir)" $$dlist; \
	else :; fi

uninstall-autovnvPYTHON:
	@$(NORMAL_UNINSTALL)
	@list='$(autovnv_PYTHON)'; test -n "$(autovnvdir)" || list=; \
	py_files=`for p in $$list; do echo $$p; done | sed -e 's|^.*/||'`; \
	test -n "$$py_files" || exit 0; \
	dir='$(DESTDIR)$(autovnvdir)'; \
	pyc_files=`echo "$$py_files" | sed 's|$$|c|'`; \
	pyo_files=`echo "$$py_files" | sed 's|$$|o|'`; \
	py_files_pep3147=`echo "$$py_files" | $(am__pep3147_tweak)`; \
	echo "$$py_files_pep3147";\
	pyc_files_pep3147=`echo "$$py_files_pep3147" | sed 's|$$|c|'`; \
	pyo_files_pep3147=`echo "$$py_files_pep3147" | sed 's|$$|o|'`; \
	st=0; \
	for files in \
	  "$$py_files" \
	  "$$pyc_files" \
	  "$$pyo_files" \
	  "$$pyc_files_pep3147" \
	  "$$pyo_files_pep3147" \
	; do \
	  $(am__uninstall_files_from_dir) || st=$$?; \
	done; \
	exit $$st
install-dist_pkgpythonPYTHON: $(dist_pkgpython_PYTHON)
	@$(NORMAL_INSTALL)
	@list='$(dist_pkgpython_PYTHON)'; dlist=; list2=; test -n "$(pkgpythondir)" || list=; \
	if test -n "$$list"; then \
	  echo " $(MKDIR_P) '$(DESTDIR)$(pkgpythondir)'"; \
	  $(MKDIR_P) "$(DESTDIR)$(pkgpythondir)" || exit 1; \
	fi; \
	for p in $$list; do \
	  if test -f "$$p"; then b=; else b="$(srcdir)/"; fi; \
	  if test -f $$b$$p; then \
	    $(am__strip_dir) \
	    dlist="$$dlist $$f"; \
	    list2="$$list2 $$b$$p"; \
	  else :; fi; \
	done; \
	for file in $$list2; do echo $$file; done | $(am__base_list) | \
	while read files; do \
	  echo " $(INSTALL_DATA) $$files '$(DESTDIR)$(pkgpythondir)'"; \
	  $(INSTALL_DATA) $$files "$(DESTDIR)$(pkgpythondir)" || exit $$?; \
	done || exit $$?; \
	if test -n "$$dlist"; then \
	  $(am__py_compile) --destdir "$(DESTDIR)" \
	                    --basedir "$(pkgpythondir)" $$dlist; \
	else :; fi

uninstall-dist_pkgpythonPYTHON:
	@$(NORMAL_UNINSTALL)
	@list='$(dist_pkgpython_PYTHON)'; test -n "$(pkgpythondir)" || list=; \
	py_files=`for p in $$list; do echo $$p; done | sed -e 's|^.*/||'`; \
	test -n "$$py_files" || exit 0; \
	dir='$(DESTDIR)$(pkgpythondir)'; \
	pyc_files=`echo "$$py_files" | sed 's|$$|c|'`; \
	pyo_files=`echo "$$py_files" | sed 's|$$|o|'`; \
	py_files_pep3147=`echo "$$py_files" | $(am__pep3147_tweak)`; \
	echo "$$py_files_pep3147";\
	pyc_files_pep3147=`echo "$$py_files_pep3147" | sed 's|$$|c|'`; \
	pyo_files_pep3147=`echo "$$py_files_pep3147" | sed 's|$$|o|'`; \
	st=0; \
	for files in \
	  "$$py_files" \
	  "$$pyc_files" \
	  "$$pyo_files" \
	  "$$pyc_files_pep3147" \
	  "$$pyo_files_pep3147" \
	; do \
	  $(am__uninstall_files_from_dir) || st=$$?; \
	done; \
	exit $$st
install-nodist_pkgpythonPYTHON: $(nodist_pkgpython_PYTHON)
	@$(NORMAL_INSTALL)
	@list='$(nodist_pkgpython_PYTHON)'; dlist=; list2=; test -n "$(pkgpythondir)" || list=; \
	if test -n "$$list"; then \
	  echo " $(MKDIR_P) '$(DESTDIR)$(pkgpythondir)'"; \
	  $(MKDIR_P) "$(DESTDIR)$(pkgpythondir)" || exit 1; \
	fi; \
	for p in $$list; do \
	  if test -f "$$p"; then b=; else b="$(srcdir)/"; fi; \
	  if test -f $$b$$p; then \
	    $(am__strip_dir) \
	    dlist="$$dlist $$f"; \
	    list2="$$list2 $$b$$p"; \
	  else :; fi; \
	done; \
	for file in $$list2; do echo $$file; done | $(am__base_list) | \
	while read files; do \
	  echo " $(INSTALL_DATA) $$files '$(DESTDIR)$(pkgpythondir)'"; \
	  $(INSTALL_DATA) $$files "$(DESTDIR)$(pkgpythondir)" || exit $$?; \
	done || exit $$?; \
	if test -n "$$dlist"; then \
	  $(am__py_compile) --destdir "$(DESTDIR)" \
	                    --basedir "$(pkgpythondir)" $$dlist; \
	else :; fi

uninstall-nodist_pkgpythonPYTHON:
	@$(NORMAL_UNINSTALL)
	@list='$(nodist_pkgpython_PYTHON)'; test -n "$(pkgpythondir)" || list=; \
	py_files=`for p in $$list; do echo $$p; done | sed -e 's|^.*/||'`; \
	test -n "$$py_files" || exit 0; \
	dir='$(DESTDIR)$(pkgpythondir)'; \
	pyc_files=`echo "$$py_files" | sed 's|$$|c|'`; \
	pyo_files=`echo "$$py_files" | sed 's|$$|o|'`; \
	py_files_pep3147=`echo "$$py_files" | $(am__pep3147_tweak)`; \
	echo "$$py_files_pep3147";\
	pyc_files_pep3147=`echo "$$py_files_pep3147" | sed 's|$$|c|'`; \
	pyo_files_pep3147=`echo "$$py_files_pep3147" | sed 's|$$|o|'`; \
	st=0; \
	for files in \
	  "$$py_files" \
	  "$$pyc_files" \
	  "$$pyo_files" \
	  "$$pyc_files_pep3147" \
	  "$$pyo_files_pep3147" \
	; do \
	  $(am__uninstall_files_from_dir) || st=$$?; \
	done; \
	exit $$st
install-man1: $(dist_man_MANS)
	@$(NORMAL_INSTALL)
	@list1=''; \
	list2='$(dist_man_MANS)'; \
	test -n "$(man1dir)" \
	  && test -n "`echo $$list1$$list2`" \
	  || exit 0; \
	echo " $(MKDIR_P) '$(DESTDIR)$(man1dir)'"; \
	$(MKDIR_P) "$(DESTDIR)$(man1dir)" || exit 1; \
	{ for i in $$list1; do echo "$$i"; done;  \
	if test -n "$$list2"; then \
	  for i in $$list2; do echo "$$i"; done \
	    | sed -n '/\.1[a-z]*$$/p'; \
	fi; \
	} | while read p; do \
	  if test -f $$p; then d=; else d="$(srcdir)/"; fi; \
	  echo "$$d$$p"; echo "$$p"; \
	done | \
	sed -e 'n;s,.*/,,;p;h;s,.*\.,,;s,^[^1][0-9a-z]*$$,1,;x' \
	      -e 's,\.[0-9a-z]*$$,,;$(transform);G;s,\n,.,' | \
	sed 'N;N;s,\n, ,g' | { \
	list=; while read file base inst; do \
	  if test "$$base" = "$$inst"; then list="$$list $$file"; else \
	    echo " $(INSTALL_DATA) '$$file' '$(DESTDIR)$(man1dir)/$$inst'"; \
	    $(INSTALL_DATA) "$$file" "$(DESTDIR)$(man1dir)/$$inst" || exit $$?; \
	  fi; \
	done; \
	for i in $$list; do echo "$$i"; done | $(am__base_list) | \
	while read files; do \
	  test -z "$$files" || { \
	    echo " $(INSTALL_DATA) $$files '$(DESTDIR)$(man1dir)'"; \
	    $(INSTALL_DATA) $$files "$(DESTDIR)$(man1dir)" || exit $$?; }; \
	done; }

uninstall-man1:
	@$(NORMAL_UNINSTALL)
	@list=''; test -n "$(man1dir)" || exit 0; \
	files=`{ for i in $$list; do echo "$$i"; done; \
	l2='$(dist_man_MANS)'; for i in $$l2; do echo "$$i"; done | \
	  sed -n '/\.1[a-z]*$$/p'; \
	} | sed -e 's,.*/,,;h;s,.*\.,,;s,^[^1][0-9a-z]*$$,1,;x' \
	      -e 's,\.[0-9a-z]*$$,,;$(transform);G;s,\n,.,'`; \
	dir='$(DESTDIR)$(man1dir)'; $(am__uninstall_files_from_dir)
install-bashcompletionDATA: $(bashcompletion_DATA)
	@$(NORMAL_INSTALL)
	@list='$(bashcompletion_DATA)'; test -n "$(bashcompletiondir)" || list=; \
	if test -n "$$list"; then \
	  echo " $(MKDIR_P) '$(DESTDIR)$(bashcompletiondir)'"; \
	  $(MKDIR_P) "$(DESTDIR)$(bashcompletiondir)" || exit 1; \
	fi; \
	for p in $$list; do \
	  if test -f "$$p"; then d=; else d="$(srcdir)/"; fi; \
	  echo "$$d$$p"; \
	done | $(am__base_list) | \
	while read files; do \
	  echo " $(INSTALL_DATA) $$files '$(DESTDIR)$(bashcompletiondir)'"; \
	  $(INSTALL_DATA) $$files "$(DESTDIR)$(bashcompletiondir)" || exit $$?; \
	done

uninstall-bashcompletionDATA:
	@$(NORMAL_UNINSTALL)
	@list='$(bashcompletion_DATA)'; test -n "$(bashcompletiondir)" || list=; \
	files=`for p in $$list; do echo $$p; done | sed -e 's|^.*/||'`; \
	dir='$(DESTDIR)$(bashcompletiondir)'; $(am__uninstall_files_from_dir)
install-batchDATA: $(batch_DATA)
	@$(NORMAL_INSTALL)
	@list='$(batch_DATA)'; test -n "$(batchdir)" || list=; \
	if test -n "$$list"; then \
	  echo " $(MKDIR_P) '$(DESTDIR)$(batchdir)'"; \
	  $(MKDIR_P) "$(DESTDIR)$(batchdir)" || exit 1; \
	fi; \
	for p in $$list; do \
	  if test -f "$$p"; then d=; else d="$(srcdir)/"; fi; \
	  echo "$$d$$p"; \
	done | $(am__base_list) | \
	while read files; do \
	  echo " $(INSTALL_DATA) $$files '$(DESTDIR)$(batchdir)'"; \
	  $(INSTALL_DATA) $$files "$(DESTDIR)$(batchdir)" || exit $$?; \
	done

uninstall-batchDATA:
	@$(NORMAL_UNINSTALL)
	@list='$(batch_DATA)'; test -n "$(batchdir)" || list=; \
	files=`for p in $$list; do echo $$p; done | sed -e 's|^.*/||'`; \
	dir='$(DESTDIR)$(batchdir)'; $(am__uninstall_files_from_dir)
install-dist_pkgdataDATA: $(dist_pkgdata_DATA)
	@$(NORMAL_INSTALL)
	@list='$(dist_pkgdata_DATA)'; test -n "$(pkgdatadir)" || list=; \
	if test -n "$$list"; then \
	  echo " $(MKDIR_P) '$(DESTDIR)$(pkgdatadir)'"; \
	  $(MKDIR_P) "$(DESTDIR)$(pkgdatadir)" || exit 1; \
	fi; \
	for p in $$list; do \
	  if test -f "$$p"; then d=; else d="$(srcdir)/"; fi; \
	  echo "$$d$$p"; \
	done | $(am__base_list) | \
	while read files; do \
	  echo " $(INSTALL_DATA) $$files '$(DESTDIR)$(pkgdatadir)'"; \
	  $(INSTALL_DATA) $$files "$(DESTDIR)$(pkgdatadir)" || exit $$?; \
	done

uninstall-dist_pkgdataDATA:
	@$(NORMAL_UNINSTALL)
	@list='$(dist_pkgdata_DATA)'; test -n "$(pkgdatadir)" || list=; \
	files=`for p in $$list; do echo $$p; done | sed -e 's|^.*/||'`; \
	dir='$(DESTDIR)$(pkgdatadir)'; $(am__uninstall_files_from_dir)
install-dist_salomeDATA: $(dist_salome_DATA)
	@$(NORMAL_INSTALL)
	@list='$(dist_salome_DATA)'; test -n "$(salomedir)" || list=; \
	if test -n "$$list"; then \
	  echo " $(MKDIR_P) '$(DESTDIR)$(salomedir)'"; \
	  $(MKDIR_P) "$(DESTDIR)$(salomedir)" || exit 1; \
	fi; \
	for p in $$list; do \
	  if test -f "$$p"; then d=; else d="$(srcdir)/"; fi; \
	  echo "$$d$$p"; \
	done | $(am__base_list) | \
	while read files; do \
	  echo " $(INSTALL_DATA) $$files '$(DESTDIR)$(salomedir)'"; \
	  $(INSTALL_DATA) $$files "$(DESTDIR)$(salomedir)" || exit $$?; \
	done

uninstall-dist_salomeDATA:
	@$(NORMAL_UNINSTALL)
	@list='$(dist_salome_DATA)'; test -n "$(salomedir)" || list=; \
	files=`for p in $$list; do echo $$p; done | sed -e 's|^.*/||'`; \
	dir='$(DESTDIR)$(salomedir)'; $(am__uninstall_files_from_dir)
install-nobase_dist_pkgdataDATA: $(nobase_dist_pkgdata_DATA)
	@$(NORMAL_INSTALL)
	@list='$(nobase_dist_pkgdata_DATA)'; test -n "$(pkgdatadir)" || list=; \
	if test -n "$$list"; then \
	  echo " $(MKDIR_P) '$(DESTDIR)$(pkgdatadir)'"; \
	  $(MKDIR_P) "$(DESTDIR)$(pkgdatadir)" || exit 1; \
	fi; \
	$(am__nobase_list) | while read dir files; do \
	  xfiles=; for file in $$files; do \
	    if test -f "$$file"; then xfiles="$$xfiles $$file"; \
	    else xfiles="$$xfiles $(srcdir)/$$file"; fi; done; \
	  test -z "$$xfiles" || { \
	    test "x$$dir" = x. || { \
	      echo " $(MKDIR_P) '$(DESTDIR)$(pkgdatadir)/$$dir'"; \
	      $(MKDIR_P) "$(DESTDIR)$(pkgdatadir)/$$dir"; }; \
	    echo " $(INSTALL_DATA) $$xfiles '$(DESTDIR)$(pkgdatadir)/$$dir'"; \
	    $(INSTALL_DATA) $$xfiles "$(DESTDIR)$(pkgdatadir)/$$dir" || exit $$?; }; \
	done

uninstall-nobase_dist_pkgdataDATA:
	@$(NORMAL_UNINSTALL)
	@list='$(nobase_dist_pkgdata_DATA)'; test -n "$(pkgdatadir)" || list=; \
	$(am__nobase_strip_setup); files=`$(am__nobase_strip)`; \
	dir='$(DESTDIR)$(pkgdatadir)'; $(am__uninstall_files_from_dir)
install-nodist_salomesysconfDATA: $(nodist_salomesysconf_DATA)
	@$(NORMAL_INSTALL)
	@list='$(nodist_salomesysconf_DATA)'; test -n "$(salomesysconfdir)" || list=; \
	if test -n "$$list"; then \
	  echo " $(MKDIR_P) '$(DESTDIR)$(salomesysconfdir)'"; \
	  $(MKDIR_P) "$(DESTDIR)$(salomesysconfdir)" || exit 1; \
	fi; \
	for p in $$list; do \
	  if test -f "$$p"; then d=; else d="$(srcdir)/"; fi; \
	  echo "$$d$$p"; \
	done | $(am__base_list) | \
	while read files; do \
	  echo " $(INSTALL_DATA) $$files '$(DESTDIR)$(salomesysconfdir)'"; \
	  $(INSTALL_DATA) $$files "$(DESTDIR)$(salomesysconfdir)" || exit $$?; \
	done

uninstall-nodist_salomesysconfDATA:
	@$(NORMAL_UNINSTALL)
	@list='$(nodist_salomesysconf_DATA)'; test -n "$(salomesysconfdir)" || list=; \
	files=`for p in $$list; do echo $$p; done | sed -e 's|^.*/||'`; \
	dir='$(DESTDIR)$(salomesysconfdir)'; $(am__uninstall_files_from_dir)
install-sysconfDATA: $(sysconf_DATA)
	@$(NORMAL_INSTALL)
	@list='$(sysconf_DATA)'; test -n "$(sysconfdir)" || list=; \
	if test -n "$$list"; then \
	  echo " $(MKDIR_P) '$(DESTDIR)$(sysconfdir)'"; \
	  $(MKDIR_P) "$(DESTDIR)$(sysconfdir)" || exit 1; \
	fi; \
	for p in $$list; do \
	  if test -f "$$p"; then d=; else d="$(srcdir)/"; fi; \
	  echo "$$d$$p"; \
	done | $(am__base_list) | \
	while read files; do \
	  echo " $(INSTALL_DATA) $$files '$(DESTDIR)$(sysconfdir)'"; \
	  $(INSTALL_DATA) $$files "$(DESTDIR)$(sysconfdir)" || exit $$?; \
	done

uninstall-sysconfDATA:
	@$(NORMAL_UNINSTALL)
	@list='$(sysconf_DATA)'; test -n "$(sysconfdir)" || list=; \
	files=`for p in $$list; do echo $$p; done | sed -e 's|^.*/||'`; \
	dir='$(DESTDIR)$(sysconfdir)'; $(am__uninstall_files_from_dir)
install-nodist_pkgincludeHEADERS: $(nodist_pkginclude_HEADERS)
	@$(NORMAL_INSTALL)
	@list='$(nodist_pkginclude_HEADERS)'; test -n "$(pkgincludedir)" || list=; \
	if test -n "$$list"; then \
	  echo " $(MKDIR_P) '$(DESTDIR)$(pkgincludedir)'"; \
	  $(MKDIR_P) "$(DESTDIR)$(pkgincludedir)" || exit 1; \
	fi; \
	for p in $$list; do \
	  if test -f "$$p"; then d=; else d="$(srcdir)/"; fi; \
	  echo "$$d$$p"; \
	done | $(am__base_list) | \
	while read files; do \
	  echo " $(INSTALL_HEADER) $$files '$(DESTDIR)$(pkgincludedir)'"; \
	  $(INSTALL_HEADER) $$files "$(DESTDIR)$(pkgincludedir)" || exit $$?; \
	done

uninstall-nodist_pkgincludeHEADERS:
	@$(NORMAL_UNINSTALL)
	@list='$(nodist_pkginclude_HEADERS)'; test -n "$(pkgincludedir)" || list=; \
	files=`for p in $$list; do echo $$p; done | sed -e 's|^.*/||'`; \
	dir='$(DESTDIR)$(pkgincludedir)'; $(am__uninstall_files_from_dir)

# This directory's subdirectories are mostly independent; you can cd
# into them and run 'make' without going through this Makefile.
# To change the values of 'make' variables: instead of editing Makefiles,
# (1) if the variable is set in 'config.status', edit 'config.status'
#     (which will cause the Makefiles to be regenerated when you run 'make');
# (2) otherwise, pass the desired values on the 'make' command line.
$(am__recursive_targets):
	@fail=; \
	if $(am__make_keepgoing); then \
	  failcom='fail=yes'; \
	else \
	  failcom='exit 1'; \
	fi; \
	dot_seen=no; \
	target=`echo $@ | sed s/-recursive//`; \
	case "$@" in \
	  distclean-* | maintainer-clean-*) list='$(DIST_SUBDIRS)' ;; \
	  *) list='$(SUBDIRS)' ;; \
	esac; \
	for subdir in $$list; do \
	  echo "Making $$target in $$subdir"; \
	  if test "$$subdir" = "."; then \
	    dot_seen=yes; \
	    local_target="$$target-am"; \
	  else \
	    local_target="$$target"; \
	  fi; \
	  ($(am__cd) $$subdir && $(MAKE) $(AM_MAKEFLAGS) $$local_target) \
	  || eval $$failcom; \
	done; \
	if test "$$dot_seen" = "no"; then \
	  $(MAKE) $(AM_MAKEFLAGS) "$$target-am" || exit 1; \
	fi; test -z "$$fail"

ID: $(am__tagged_files)
	$(am__define_uniq_tagged_files); mkid -fID $$unique
tags: tags-recursive
TAGS: tags

tags-am: $(TAGS_DEPENDENCIES) $(am__tagged_files)
	set x; \
	here=`pwd`; \
	if ($(ETAGS) --etags-include --version) >/dev/null 2>&1; then \
	  include_option=--etags-include; \
	  empty_fix=.; \
	else \
	  include_option=--include; \
	  empty_fix=; \
	fi; \
	list='$(SUBDIRS)'; for subdir in $$list; do \
	  if test "$$subdir" = .; then :; else \
	    test ! -f $$subdir/TAGS || \
	      set "$$@" "$$include_option=$$here/$$subdir/TAGS"; \
	  fi; \
	done; \
	$(am__define_uniq_tagged_files); \
	shift; \
	if test -z "$(ETAGS_ARGS)$$*$$unique"; then :; else \
	  test -n "$$unique" || unique=$$empty_fix; \
	  if test $$# -gt 0; then \
	    $(ETAGS) $(ETAGSFLAGS) $(AM_ETAGSFLAGS) $(ETAGS_ARGS) \
	      "$$@" $$unique; \
	  else \
	    $(ETAGS) $(ETAGSFLAGS) $(AM_ETAGSFLAGS) $(ETAGS_ARGS) \
	      $$unique; \
	  fi; \
	fi
ctags: ctags-recursive

CTAGS: ctags
ctags-am: $(TAGS_DEPENDENCIES) $(am__tagged_files)
	$(am__define_uniq_tagged_files); \
	test -z "$(CTAGS_ARGS)$$unique" \
	  || $(CTAGS) $(CTAGSFLAGS) $(AM_CTAGSFLAGS) $(CTAGS_ARGS) \
	     $$unique

GTAGS:
	here=`$(am__cd) $(top_builddir) && pwd` \
	  && $(am__cd) $(top_srcdir) \
	  && gtags -i $(GTAGS_ARGS) "$$here"
cscope: cscope.files
	test ! -s cscope.files \
	  || $(CSCOPE) -b -q $(AM_CSCOPEFLAGS) $(CSCOPEFLAGS) -i cscope.files $(CSCOPE_ARGS)
clean-cscope:
	-rm -f cscope.files
cscope.files: clean-cscope cscopelist
cscopelist: cscopelist-recursive

cscopelist-am: $(am__tagged_files)
	list='$(am__tagged_files)'; \
	case "$(srcdir)" in \
	  [\\/]* | ?:[\\/]*) sdir="$(srcdir)" ;; \
	  *) sdir=$(subdir)/$(srcdir) ;; \
	esac; \
	for i in $$list; do \
	  if test -f "$$i"; then \
	    echo "$(subdir)/$$i"; \
	  else \
	    echo "$$sdir/$$i"; \
	  fi; \
	done >> $(top_builddir)/cscope.files

distclean-tags:
	-rm -f TAGS ID GTAGS GRTAGS GSYMS GPATH tags
	-rm -f cscope.out cscope.in.out cscope.po.out cscope.files

distdir: $(DISTFILES)
	$(am__remove_distdir)
	test -d "$(distdir)" || mkdir "$(distdir)"
	@srcdirstrip=`echo "$(srcdir)" | sed 's/[].[^$$\\*]/\\\\&/g'`; \
	topsrcdirstrip=`echo "$(top_srcdir)" | sed 's/[].[^$$\\*]/\\\\&/g'`; \
	list='$(DISTFILES)'; \
	  dist_files=`for file in $$list; do echo $$file; done | \
	  sed -e "s|^$$srcdirstrip/||;t" \
	      -e "s|^$$topsrcdirstrip/|$(top_builddir)/|;t"`; \
	case $$dist_files in \
	  */*) $(MKDIR_P) `echo "$$dist_files" | \
			   sed '/\//!d;s|^|$(distdir)/|;s,/[^/]*$$,,' | \
			   sort -u` ;; \
	esac; \
	for file in $$dist_files; do \
	  if test -f $$file || test -d $$file; then d=.; else d=$(srcdir); fi; \
	  if test -d $$d/$$file; then \
	    dir=`echo "/$$file" | sed -e 's,/[^/]*$$,,'`; \
	    if test -d "$(distdir)/$$file"; then \
	      find "$(distdir)/$$file" -type d ! -perm -700 -exec chmod u+rwx {} \;; \
	    fi; \
	    if test -d $(srcdir)/$$file && test $$d != $(srcdir); then \
	      cp -fpR $(srcdir)/$$file "$(distdir)$$dir" || exit 1; \
	      find "$(distdir)/$$file" -type d ! -perm -700 -exec chmod u+rwx {} \;; \
	    fi; \
	    cp -fpR $$d/$$file "$(distdir)$$dir" || exit 1; \
	  else \
	    test -f "$(distdir)/$$file" \
	    || cp -p $$d/$$file "$(distdir)/$$file" \
	    || exit 1; \
	  fi; \
	done
	@list='$(DIST_SUBDIRS)'; for subdir in $$list; do \
	  if test "$$subdir" = .; then :; else \
	    $(am__make_dryrun) \
	      || test -d "$(distdir)/$$subdir" \
	      || $(MKDIR_P) "$(distdir)/$$subdir" \
	      || exit 1; \
	    dir1=$$subdir; dir2="$(distdir)/$$subdir"; \
	    $(am__relativize); \
	    new_distdir=$$reldir; \
	    dir1=$$subdir; dir2="$(top_distdir)"; \
	    $(am__relativize); \
	    new_top_distdir=$$reldir; \
	    echo " (cd $$subdir && $(MAKE) $(AM_MAKEFLAGS) top_distdir="$$new_top_distdir" distdir="$$new_distdir" \\"; \
	    echo "     am__remove_distdir=: am__skip_length_check=: am__skip_mode_fix=: distdir)"; \
	    ($(am__cd) $$subdir && \
	      $(MAKE) $(AM_MAKEFLAGS) \
	        top_distdir="$$new_top_distdir" \
	        distdir="$$new_distdir" \
		am__remove_distdir=: \
		am__skip_length_check=: \
		am__skip_mode_fix=: \
	        distdir) \
	      || exit 1; \
	  fi; \
	done
	$(MAKE) $(AM_MAKEFLAGS) \
	  top_distdir="$(top_distdir)" distdir="$(distdir)" \
	  dist-hook
	-test -n "$(am__skip_mode_fix)" \
	|| find "$(distdir)" -type d ! -perm -755 \
		-exec chmod u+rwx,go+rx {} \; -o \
	  ! -type d ! -perm -444 -links 1 -exec chmod a+r {} \; -o \
	  ! -type d ! -perm -400 -exec chmod a+r {} \; -o \
	  ! -type d ! -perm -444 -exec $(install_sh) -c -m a+r {} {} \; \
	|| chmod -R a+r "$(distdir)"
dist-gzip: distdir
	tardir=$(distdir) && $(am__tar) | GZIP=$(GZIP_ENV) gzip -c >$(distdir).tar.gz
	$(am__post_remove_distdir)

dist-bzip2: distdir
	tardir=$(distdir) && $(am__tar) | BZIP2=$${BZIP2--9} bzip2 -c >$(distdir).tar.bz2
	$(am__post_remove_distdir)

dist-lzip: distdir
	tardir=$(distdir) && $(am__tar) | lzip -c $${LZIP_OPT--9} >$(distdir).tar.lz
	$(am__post_remove_distdir)

dist-xz: distdir
	tardir=$(distdir) && $(am__tar) | XZ_OPT=$${XZ_OPT--e} xz -c >$(distdir).tar.xz
	$(am__post_remove_distdir)

dist-tarZ: distdir
	@echo WARNING: "Support for shar distribution archives is" \
	               "deprecated." >&2
	@echo WARNING: "It will be removed altogether in Automake 2.0" >&2
	tardir=$(distdir) && $(am__tar) | compress -c >$(distdir).tar.Z
	$(am__post_remove_distdir)

dist-shar: distdir
	@echo WARNING: "Support for distribution archives compressed with" \
		       "legacy program 'compress' is deprecated." >&2
	@echo WARNING: "It will be removed altogether in Automake 2.0" >&2
	shar $(distdir) | GZIP=$(GZIP_ENV) gzip -c >$(distdir).shar.gz
	$(am__post_remove_distdir)

dist-zip: distdir
	-rm -f $(distdir).zip
	zip -rq $(distdir).zip $(distdir)
	$(am__post_remove_distdir)

dist dist-all:
	$(MAKE) $(AM_MAKEFLAGS) $(DIST_TARGETS) am__post_remove_distdir='@:'
	$(am__post_remove_distdir)

# This target untars the dist file and tries a VPATH configuration.  Then
# it guarantees that the distribution is self-contained by making another
# tarfile.
distcheck: dist
	case '$(DIST_ARCHIVES)' in \
	*.tar.gz*) \
	  GZIP=$(GZIP_ENV) gzip -dc $(distdir).tar.gz | $(am__untar) ;;\
	*.tar.bz2*) \
	  bzip2 -dc $(distdir).tar.bz2 | $(am__untar) ;;\
	*.tar.lz*) \
	  lzip -dc $(distdir).tar.lz | $(am__untar) ;;\
	*.tar.xz*) \
	  xz -dc $(distdir).tar.xz | $(am__untar) ;;\
	*.tar.Z*) \
	  uncompress -c $(distdir).tar.Z | $(am__untar) ;;\
	*.shar.gz*) \
	  GZIP=$(GZIP_ENV) gzip -dc $(distdir).shar.gz | unshar ;;\
	*.zip*) \
	  unzip $(distdir).zip ;;\
	esac
	chmod -R a-w $(distdir)
	chmod u+w $(distdir)
	mkdir $(distdir)/_build $(distdir)/_inst
	chmod a-w $(distdir)
	test -d $(distdir)/_build || exit 0; \
	dc_install_base=`$(am__cd) $(distdir)/_inst && pwd | sed -e 's,^[^:\\/]:[\\/],/,'` \
	  && dc_destdir="$${TMPDIR-/tmp}/am-dc-$$$$/" \
	  && am__cwd=`pwd` \
	  && $(am__cd) $(distdir)/_build \
	  && ../configure \
	    $(AM_DISTCHECK_CONFIGURE_FLAGS) \
	    $(DISTCHECK_CONFIGURE_FLAGS) \
	    --srcdir=.. --prefix="$$dc_install_base" \
	  && $(MAKE) $(AM_MAKEFLAGS) \
	  && $(MAKE) $(AM_MAKEFLAGS) dvi \
	  && $(MAKE) $(AM_MAKEFLAGS) check \
	  && $(MAKE) $(AM_MAKEFLAGS) install \
	  && $(MAKE) $(AM_MAKEFLAGS) installcheck \
	  && $(MAKE) $(AM_MAKEFLAGS) uninstall \
	  && $(MAKE) $(AM_MAKEFLAGS) distuninstallcheck_dir="$$dc_install_base" \
	        distuninstallcheck \
	  && chmod -R a-w "$$dc_install_base" \
	  && ({ \
	       (cd ../.. && umask 077 && mkdir "$$dc_destdir") \
	       && $(MAKE) $(AM_MAKEFLAGS) DESTDIR="$$dc_destdir" install \
	       && $(MAKE) $(AM_MAKEFLAGS) DESTDIR="$$dc_destdir" uninstall \
	       && $(MAKE) $(AM_MAKEFLAGS) DESTDIR="$$dc_destdir" \
	            distuninstallcheck_dir="$$dc_destdir" distuninstallcheck; \
	      } || { rm -rf "$$dc_destdir"; exit 1; }) \
	  && rm -rf "$$dc_destdir" \
	  && $(MAKE) $(AM_MAKEFLAGS) dist \
	  && rm -rf $(DIST_ARCHIVES) \
	  && $(MAKE) $(AM_MAKEFLAGS) distcleancheck \
	  && cd "$$am__cwd" \
	  || exit 1
	$(am__post_remove_distdir)
	@(echo "$(distdir) archives ready for distribution: "; \
	  list='$(DIST_ARCHIVES)'; for i in $$list; do echo $$i; done) | \
	  sed -e 1h -e 1s/./=/g -e 1p -e 1x -e '$$p' -e '$$x'
distuninstallcheck:
	@test -n '$(distuninstallcheck_dir)' || { \
	  echo 'ERROR: trying to run $@ with an empty' \
	       '$$(distuninstallcheck_dir)' >&2; \
	  exit 1; \
	}; \
	$(am__cd) '$(distuninstallcheck_dir)' || { \
	  echo 'ERROR: cannot chdir into $(distuninstallcheck_dir)' >&2; \
	  exit 1; \
	}; \
	test `$(am__distuninstallcheck_listfiles) | wc -l` -eq 0 \
	   || { echo "ERROR: files left after uninstall:" ; \
	        if test -n "$(DESTDIR)"; then \
	          echo "  (check DESTDIR support)"; \
	        fi ; \
	        $(distuninstallcheck_listfiles) ; \
	        exit 1; } >&2
distcleancheck: distclean
	@if test '$(srcdir)' = . ; then \
	  echo "ERROR: distcleancheck can only run from a VPATH build" ; \
	  exit 1 ; \
	fi
	@test `$(distcleancheck_listfiles) | wc -l` -eq 0 \
	  || { echo "ERROR: files left in build directory after distclean:" ; \
	       $(distcleancheck_listfiles) ; \
	       exit 1; } >&2
check-am: all-am
check: check-recursive
all-am: Makefile $(SCRIPTS) $(MANS) $(DATA) $(HEADERS) cs_config.h \
		all-local
installdirs: installdirs-recursive
installdirs-am:
	for dir in "$(DESTDIR)$(pkgdatadir)" "$(DESTDIR)$(bindir)" "$(DESTDIR)$(autovnvdir)" "$(DESTDIR)$(pkgpythondir)" "$(DESTDIR)$(pkgpythondir)" "$(DESTDIR)$(man1dir)" "$(DESTDIR)$(bashcompletiondir)" "$(DESTDIR)$(batchdir)" "$(DESTDIR)$(pkgdatadir)" "$(DESTDIR)$(salomedir)" "$(DESTDIR)$(pkgdatadir)" "$(DESTDIR)$(salomesysconfdir)" "$(DESTDIR)$(sysconfdir)" "$(DESTDIR)$(pkgincludedir)"; do \
	  test -z "$$dir" || $(MKDIR_P) "$$dir"; \
	done
install: install-recursive
install-exec: install-exec-recursive
install-data: install-data-recursive
uninstall: uninstall-recursive

install-am: all-am
	@$(MAKE) $(AM_MAKEFLAGS) install-exec-am install-data-am

installcheck: installcheck-recursive
install-strip:
	if test -z '$(STRIP)'; then \
	  $(MAKE) $(AM_MAKEFLAGS) INSTALL_PROGRAM="$(INSTALL_STRIP_PROGRAM)" \
	    install_sh_PROGRAM="$(INSTALL_STRIP_PROGRAM)" INSTALL_STRIP_FLAG=-s \
	      install; \
	else \
	  $(MAKE) $(AM_MAKEFLAGS) INSTALL_PROGRAM="$(INSTALL_STRIP_PROGRAM)" \
	    install_sh_PROGRAM="$(INSTALL_STRIP_PROGRAM)" INSTALL_STRIP_FLAG=-s \
	    "INSTALL_PROGRAM_ENV=STRIPPROG='$(STRIP)'" install; \
	fi
mostlyclean-generic:

clean-generic:
	-test -z "$(CLEANFILES)" || rm -f $(CLEANFILES)

distclean-generic:
	-test -z "$(CONFIG_CLEAN_FILES)" || rm -f $(CONFIG_CLEAN_FILES)
	-test . = "$(srcdir)" || test -z "$(CONFIG_CLEAN_VPATH_FILES)" || rm -f $(CONFIG_CLEAN_VPATH_FILES)
	-test -z "$(DISTCLEANFILES)" || rm -f $(DISTCLEANFILES)

maintainer-clean-generic:
	@echo "This command is intended for maintainers to use"
	@echo "it deletes files that may require special tools to rebuild."
	-test -z "$(MAINTAINERCLEANFILES)" || rm -f $(MAINTAINERCLEANFILES)
clean: clean-recursive

clean-am: clean-generic clean-libtool clean-local mostlyclean-am

distclean: distclean-recursive
	-rm -f $(am__CONFIG_DISTCLEAN_FILES)
	-rm -f Makefile
distclean-am: clean-am distclean-generic distclean-hdr \
	distclean-libtool distclean-tags

dvi: dvi-recursive

dvi-am:

html: html-recursive

html-am:

info: info-recursive

info-am:

install-data-am: install-autovnvPYTHON install-bashcompletionDATA \
	install-batchDATA install-dist_pkgdataDATA \
	install-dist_pkgdataSCRIPTS install-dist_pkgpythonPYTHON \
	install-dist_salomeDATA install-man \
	install-nobase_dist_pkgdataDATA \
	install-nodist_pkgincludeHEADERS \
	install-nodist_pkgpythonPYTHON \
	install-nodist_salomesysconfDATA

install-dvi: install-dvi-recursive

install-dvi-am:

install-exec-am: install-nodist_binSCRIPTS install-sysconfDATA

install-html: install-html-recursive

install-html-am:

install-info: install-info-recursive

install-info-am:

install-man: install-man1

install-pdf: install-pdf-recursive

install-pdf-am:

install-ps: install-ps-recursive

install-ps-am:

installcheck-am:

maintainer-clean: maintainer-clean-recursive
	-rm -f $(am__CONFIG_DISTCLEAN_FILES)
	-rm -rf $(top_srcdir)/autom4te.cache
	-rm -f Makefile
maintainer-clean-am: distclean-am maintainer-clean-generic

mostlyclean: mostlyclean-recursive

mostlyclean-am: mostlyclean-generic mostlyclean-libtool

pdf: pdf-recursive

pdf-am:

ps: ps-recursive

ps-am:

uninstall-am: uninstall-autovnvPYTHON uninstall-bashcompletionDATA \
	uninstall-batchDATA uninstall-dist_pkgdataDATA \
	uninstall-dist_pkgdataSCRIPTS uninstall-dist_pkgpythonPYTHON \
	uninstall-dist_salomeDATA uninstall-man \
	uninstall-nobase_dist_pkgdataDATA uninstall-nodist_binSCRIPTS \
	uninstall-nodist_pkgincludeHEADERS \
	uninstall-nodist_pkgpythonPYTHON \
	uninstall-nodist_salomesysconfDATA uninstall-sysconfDATA

uninstall-man: uninstall-man1

.MAKE: $(am__recursive_targets) all install-am install-strip

.PHONY: $(am__recursive_targets) CTAGS GTAGS TAGS all all-am all-local \
	am--refresh check check-am clean clean-cscope clean-generic \
	clean-libtool clean-local cscope cscopelist-am ctags ctags-am \
	dist dist-all dist-bzip2 dist-gzip dist-hook dist-lzip \
	dist-shar dist-tarZ dist-xz dist-zip distcheck distclean \
	distclean-generic distclean-hdr distclean-libtool \
	distclean-tags distcleancheck distdir distuninstallcheck dvi \
	dvi-am html html-am info info-am install install-am \
	install-autovnvPYTHON install-bashcompletionDATA \
	install-batchDATA install-data install-data-am \
	install-dist_pkgdataDATA install-dist_pkgdataSCRIPTS \
	install-dist_pkgpythonPYTHON install-dist_salomeDATA \
	install-dvi install-dvi-am install-exec install-exec-am \
	install-html install-html-am install-info install-info-am \
	install-man install-man1 install-nobase_dist_pkgdataDATA \
	install-nodist_binSCRIPTS install-nodist_pkgincludeHEADERS \
	install-nodist_pkgpythonPYTHON \
	install-nodist_salomesysconfDATA install-pdf install-pdf-am \
	install-ps install-ps-am install-strip install-sysconfDATA \
	installcheck installcheck-am installdirs installdirs-am \
	maintainer-clean maintainer-clean-generic mostlyclean \
	mostlyclean-generic mostlyclean-libtool pdf pdf-am ps ps-am \
	tags tags-am uninstall uninstall-am uninstall-autovnvPYTHON \
	uninstall-bashcompletionDATA uninstall-batchDATA \
	uninstall-dist_pkgdataDATA uninstall-dist_pkgdataSCRIPTS \
	uninstall-dist_pkgpythonPYTHON uninstall-dist_salomeDATA \
	uninstall-man uninstall-man1 uninstall-nobase_dist_pkgdataDATA \
	uninstall-nodist_binSCRIPTS uninstall-nodist_pkgincludeHEADERS \
	uninstall-nodist_pkgpythonPYTHON \
	uninstall-nodist_salomesysconfDATA uninstall-sysconfDATA


bin/code_saturne: Makefile
	rm -f $@ $@.tmp
	$(MKDIR_P) bin
	srcdir=''; \
	test -f ./$@.in || srcdir=$(srcdir)/; \
	$(edit_python) $${srcdir}$@.in >$@.tmp
	mv $@.tmp $@

bin/cs_package.py: Makefile
	rm -f $@ $@.tmp
	$(MKDIR_P) bin
	srcdir=''; \
	test -f ./$@.in || srcdir=$(srcdir)/; \
	$(edit_package) $${srcdir}$@.in >$@.tmp
	mv $@.tmp $@

bin/code_saturne: $(srcdir)/bin/code_saturne.in
bin/cs_package.py: $(srcdir)/bin/cs_package.py.in

# Update gettext dictionnaries

update-po:
	cd po && $(MAKE) $(AM_MAKEFLAGS) update-po

# Generate and install documentation

doc:
	cd docs && $(MAKE) $(AM_MAKEFLAGS) doc

install-doc:
	cd docs && $(MAKE) $(AM_MAKEFLAGS) install-doc

# Generate ChangeLog

changelog:
	start=2016-01-01; \
	if test -d ${top_srcdir}/.svn ; then \
	  today=`date +%F`; \
	  svn2cl --reparagraph --include-rev --include-actions \
	  --authors=${top_srcdir}/extras/changelog/authors.xml \
	  --output=${top_srcdir}/ChangeLog \
	  ${top_srcdir} --revision {"$${today} 23:59"}:{"$${start} 00:00"} ; \
        elif test -d ${top_srcdir}/.git ; then \
	  git --no-pager --git-dir=${top_srcdir}/.git --work-tree=${top_srcdir} log \
	    --since={$${start}} --no-merges --date-order --date=iso \
	    --format="%n%cd %aN <%ce> %n%n%x09* [%H]%n%w(82,8,8)%s" --name-status > ${top_srcdir}/ChangeLog ; \
	else \
	  echo "ChangeLog must be generated from a Subversion or git working copy."  > ${top_srcdir}/ChangeLog ; \
	fi; \
	cat ${top_srcdir}/extras/changelog/ChangeLog.base >> ${top_srcdir}/ChangeLog;

# Update Copyright

update-copyright:
	y=`date +%Y`; yold=$$(($$y-1)); \
	lst=`find ${top_srcdir} -type d \( -name .svn -o -name .git -o -name "build*" \) -prune -o \( -type f -a ! -name Makefile.in \) -print`; \
	for f in $$lst; do \
	  echo $$f && \
	  $(SED) -i "s/Copyright (C) 1998-$${yold} EDF S.A./Copyright (C) 1998-$$y EDF S.A./" $$f; \
	done

dist-hook: changelog
	\cp -f ${top_srcdir}/ChangeLog ${distdir}
	-rm -rf `find $(distdir)/docs -name .svn`
	-rm -rf `find $(distdir)/examples  -name .svn`
	-rm -rf `find $(distdir)/extras  -name .svn`
	-rm -rf `find $(distdir)/gui  -name .svn`
	-rm -rf `find $(distdir)/patches -name .svn`
	-rm -rf `find $(distdir)/salome -name .svn`
	$(PYTHON) ${top_srcdir}/build-aux/cs_version.py --full > $(distdir)/build-aux/version

all-local: bin/cs_package.py

clean-local:
	-rm -f *__genmod.f90 *__genmod.mod

# Tell versions [3.59,3.63) of GNU make to not export all variables.
# Otherwise a system limit (for SysV at least) may be exceeded.
.NOEXPORT:
