# Makefile.in generated by automake 1.14.1 from Makefile.am.
# @configure_input@

# Copyright (C) 1994-2013 Free Software Foundation, Inc.

# This Makefile.in is free software; the Free Software Foundation
# gives unlimited permission to copy and/or distribute it,
# with or without modifications, as long as this notice is preserved.

# This program is distributed in the hope that it will be useful,
# but WITHOUT ANY WARRANTY, to the extent permitted by law; without
# even the implied warranty of MERCHANTABILITY or FITNESS FOR A
# PARTICULAR PURPOSE.

@SET_MAKE@

#-------------------------------------------------------------------------------

# This file is part of Code_Saturne, a general-purpose CFD tool.
#
# Copyright (C) 1998-2016 EDF S.A.
#
# This program is free software; you can redistribute it and/or modify it under
# the terms of the GNU General Public License as published by the Free Software
# Foundation; either version 2 of the License, or (at your option) any later
# version.
#
# This program is distributed in the hope that it will be useful, but WITHOUT
# ANY WARRANTY; without even the implied warranty of MERCHANTABILITY or FITNESS
# FOR A PARTICULAR PURPOSE.  See the GNU General Public License for more
# details.
#
# You should have received a copy of the GNU General Public License along with
# this program; if not, write to the Free Software Foundation, Inc., 51 Franklin
# Street, Fifth Floor, Boston, MA 02110-1301, USA.

#-------------------------------------------------------------------------------

# Main part


VPATH = @srcdir@
am__is_gnu_make = test -n '$(MAKEFILE_LIST)' && test -n '$(MAKELEVEL)'
am__make_running_with_option = \
  case $${target_option-} in \
      ?) ;; \
      *) echo "am__make_running_with_option: internal error: invalid" \
              "target option '$${target_option-}' specified" >&2; \
         exit 1;; \
  esac; \
  has_opt=no; \
  sane_makeflags=$$MAKEFLAGS; \
  if $(am__is_gnu_make); then \
    sane_makeflags=$$MFLAGS; \
  else \
    case $$MAKEFLAGS in \
      *\\[\ \	]*) \
        bs=\\; \
        sane_makeflags=`printf '%s\n' "$$MAKEFLAGS" \
          | sed "s/$$bs$$bs[$$bs $$bs	]*//g"`;; \
    esac; \
  fi; \
  skip_next=no; \
  strip_trailopt () \
  { \
    flg=`printf '%s\n' "$$flg" | sed "s/$$1.*$$//"`; \
  }; \
  for flg in $$sane_makeflags; do \
    test $$skip_next = yes && { skip_next=no; continue; }; \
    case $$flg in \
      *=*|--*) continue;; \
        -*I) strip_trailopt 'I'; skip_next=yes;; \
      -*I?*) strip_trailopt 'I';; \
        -*O) strip_trailopt 'O'; skip_next=yes;; \
      -*O?*) strip_trailopt 'O';; \
        -*l) strip_trailopt 'l'; skip_next=yes;; \
      -*l?*) strip_trailopt 'l';; \
      -[dEDm]) skip_next=yes;; \
      -[JT]) skip_next=yes;; \
    esac; \
    case $$flg in \
      *$$target_option*) has_opt=yes; break;; \
    esac; \
  done; \
  test $$has_opt = yes
am__make_dryrun = (target_option=n; $(am__make_running_with_option))
am__make_keepgoing = (target_option=k; $(am__make_running_with_option))
pkgdatadir = $(datadir)/@PACKAGE@
pkgincludedir = $(includedir)/@PACKAGE@
pkglibdir = $(libdir)/@PACKAGE@
pkglibexecdir = $(libexecdir)/@PACKAGE@
am__cd = CDPATH="$${ZSH_VERSION+.}$(PATH_SEPARATOR)" && cd
install_sh_DATA = $(install_sh) -c -m 644
install_sh_PROGRAM = $(install_sh) -c
install_sh_SCRIPT = $(install_sh) -c
INSTALL_HEADER = $(INSTALL_DATA)
transform = $(program_transform_name)
NORMAL_INSTALL = :
PRE_INSTALL = :
POST_INSTALL = :
NORMAL_UNINSTALL = :
PRE_UNINSTALL = :
POST_UNINSTALL = :
build_triplet = @build@
host_triplet = @host@
target_triplet = @target@
@HAVE_CCM_TRUE@@HAVE_PLUGINS_TRUE@am__append_1 = ecs_ccm.la
@HAVE_CCM_TRUE@@HAVE_PLUGINS_FALSE@am__append_2 = libecs_ccm.la
@HAVE_CCM_TRUE@@HAVE_PLUGINS_FALSE@am__append_3 = libecs_ccm.la
subdir = preprocessor/pre-post
DIST_COMMON = $(srcdir)/Makefile.in $(srcdir)/Makefile.am \
	$(top_srcdir)/build-aux/depcomp $(noinst_HEADERS)
ACLOCAL_M4 = $(top_srcdir)/aclocal.m4
am__aclocal_m4_deps = $(top_srcdir)/m4/acx_pthread.m4 \
	$(top_srcdir)/m4/cs_blas.m4 $(top_srcdir)/m4/cs_catalyst.m4 \
	$(top_srcdir)/m4/cs_ccm.m4 $(top_srcdir)/m4/cs_cgns.m4 \
	$(top_srcdir)/m4/cs_docs.m4 $(top_srcdir)/m4/cs_eos.m4 \
	$(top_srcdir)/m4/cs_fortran.m4 \
	$(top_srcdir)/m4/cs_freesteam.m4 $(top_srcdir)/m4/cs_hdf5.m4 \
	$(top_srcdir)/m4/cs_libxml2.m4 $(top_srcdir)/m4/cs_med.m4 \
	$(top_srcdir)/m4/cs_metis.m4 $(top_srcdir)/m4/cs_modules.m4 \
	$(top_srcdir)/m4/cs_mpi.m4 $(top_srcdir)/m4/cs_omniorb.m4 \
	$(top_srcdir)/m4/cs_ple.m4 $(top_srcdir)/m4/cs_salome.m4 \
	$(top_srcdir)/m4/cs_scotch.m4 $(top_srcdir)/m4/cs_zlib.m4 \
	$(top_srcdir)/m4/gettext.m4 $(top_srcdir)/m4/iconv.m4 \
	$(top_srcdir)/m4/intlmacosx.m4 $(top_srcdir)/m4/lib-ld.m4 \
	$(top_srcdir)/m4/lib-link.m4 $(top_srcdir)/m4/lib-prefix.m4 \
	$(top_srcdir)/m4/libtool.m4 $(top_srcdir)/m4/ltoptions.m4 \
	$(top_srcdir)/m4/ltsugar.m4 $(top_srcdir)/m4/ltversion.m4 \
	$(top_srcdir)/m4/lt~obsolete.m4 $(top_srcdir)/m4/nls.m4 \
	$(top_srcdir)/m4/po.m4 $(top_srcdir)/m4/progtest.m4 \
	$(top_srcdir)/configure.ac
am__configure_deps = $(am__aclocal_m4_deps) $(CONFIGURE_DEPENDENCIES) \
	$(ACLOCAL_M4)
mkinstalldirs = $(install_sh) -d
CONFIG_HEADER = $(top_builddir)/cs_config.h
CONFIG_CLEAN_FILES =
CONFIG_CLEAN_VPATH_FILES =
am__vpath_adj_setup = srcdirstrip=`echo "$(srcdir)" | sed 's|.|.|g'`;
am__vpath_adj = case $$p in \
    $(srcdir)/*) f=`echo "$$p" | sed "s|^$$srcdirstrip/||"`;; \
    *) f=$$p;; \
  esac;
am__strip_dir = f=`echo $$p | sed -e 's|^.*/||'`;
am__install_max = 40
am__nobase_strip_setup = \
  srcdirstrip=`echo "$(srcdir)" | sed 's/[].[^$$\\*|]/\\\\&/g'`
am__nobase_strip = \
  for p in $$list; do echo "$$p"; done | sed -e "s|$$srcdirstrip/||"
am__nobase_list = $(am__nobase_strip_setup); \
  for p in $$list; do echo "$$p $$p"; done | \
  sed "s| $$srcdirstrip/| |;"' / .*\//!s/ .*/ ./; s,\( .*\)/[^/]*$$,\1,' | \
  $(AWK) 'BEGIN { files["."] = "" } { files[$$2] = files[$$2] " " $$1; \
    if (++n[$$2] == $(am__install_max)) \
      { print $$2, files[$$2]; n[$$2] = 0; files[$$2] = "" } } \
    END { for (dir in files) print dir, files[dir] }'
am__base_list = \
  sed '$$!N;$$!N;$$!N;$$!N;$$!N;$$!N;$$!N;s/\n/ /g' | \
  sed '$$!N;$$!N;$$!N;$$!N;s/\n/ /g'
am__uninstall_files_from_dir = { \
  test -z "$$files" \
    || { test ! -d "$$dir" && test ! -f "$$dir" && test ! -r "$$dir"; } \
    || { echo " ( cd '$$dir' && rm -f" $$files ")"; \
         $(am__cd) "$$dir" && rm -f $$files; }; \
  }
am__installdirs = "$(DESTDIR)$(libdir)" "$(DESTDIR)$(pkglibdir)"
LTLIBRARIES = $(lib_LTLIBRARIES) $(noinst_LTLIBRARIES) \
	$(pkglib_LTLIBRARIES)
am__DEPENDENCIES_1 =
@HAVE_CCM_TRUE@@HAVE_PLUGINS_TRUE@ecs_ccm_la_DEPENDENCIES =  \
@HAVE_CCM_TRUE@@HAVE_PLUGINS_TRUE@	$(am__DEPENDENCIES_1) \
@HAVE_CCM_TRUE@@HAVE_PLUGINS_TRUE@	$(am__DEPENDENCIES_1) \
@HAVE_CCM_TRUE@@HAVE_PLUGINS_TRUE@	$(am__DEPENDENCIES_1)
am__ecs_ccm_la_SOURCES_DIST = ecs_pre_ccm.c
@HAVE_CCM_TRUE@@HAVE_PLUGINS_TRUE@am_ecs_ccm_la_OBJECTS =  \
@HAVE_CCM_TRUE@@HAVE_PLUGINS_TRUE@	ecs_ccm_la-ecs_pre_ccm.lo
ecs_ccm_la_OBJECTS = $(am_ecs_ccm_la_OBJECTS)
AM_V_lt = $(am__v_lt_@AM_V@)
am__v_lt_ = $(am__v_lt_@AM_DEFAULT_V@)
am__v_lt_0 = --silent
am__v_lt_1 = 
ecs_ccm_la_LINK = $(LIBTOOL) $(AM_V_lt) --tag=CC $(AM_LIBTOOLFLAGS) \
	$(LIBTOOLFLAGS) --mode=link $(CCLD) $(AM_CFLAGS) $(CFLAGS) \
	$(ecs_ccm_la_LDFLAGS) $(LDFLAGS) -o $@
@HAVE_CCM_TRUE@@HAVE_PLUGINS_TRUE@am_ecs_ccm_la_rpath = -rpath \
@HAVE_CCM_TRUE@@HAVE_PLUGINS_TRUE@	$(pkglibdir)
@HAVE_CCM_TRUE@@HAVE_PLUGINS_FALSE@libecs_ccm_la_DEPENDENCIES =  \
@HAVE_CCM_TRUE@@HAVE_PLUGINS_FALSE@	$(am__DEPENDENCIES_1) \
@HAVE_CCM_TRUE@@HAVE_PLUGINS_FALSE@	$(am__DEPENDENCIES_1) \
@HAVE_CCM_TRUE@@HAVE_PLUGINS_FALSE@	$(am__DEPENDENCIES_1)
am__libecs_ccm_la_SOURCES_DIST = ecs_pre_ccm.c
@HAVE_CCM_TRUE@@HAVE_PLUGINS_FALSE@am_libecs_ccm_la_OBJECTS = libecs_ccm_la-ecs_pre_ccm.lo
libecs_ccm_la_OBJECTS = $(am_libecs_ccm_la_OBJECTS)
@HAVE_CCM_TRUE@@HAVE_PLUGINS_FALSE@am_libecs_ccm_la_rpath =
libprepostecs_la_DEPENDENCIES = $(am__append_3)
am_libprepostecs_la_OBJECTS = libprepostecs_la-ecs_table_comm.lo \
	libprepostecs_la-ecs_table_post.lo \
	libprepostecs_la-ecs_table_post_cgns.lo \
	libprepostecs_la-ecs_table_post_ens.lo \
	libprepostecs_la-ecs_table_post_med.lo \
	libprepostecs_la-ecs_maillage_ncs.lo \
	libprepostecs_la-ecs_maillage_post.lo \
	libprepostecs_la-ecs_maillage_pre.lo \
	libprepostecs_la-ecs_med.lo libprepostecs_la-ecs_post.lo \
	libprepostecs_la-ecs_post_cgns.lo \
	libprepostecs_la-ecs_post_ens.lo \
	libprepostecs_la-ecs_post_med.lo libprepostecs_la-ecs_pre.lo \
	libprepostecs_la-ecs_pre_cgns.lo \
	libprepostecs_la-ecs_pre_ens.lo \
	libprepostecs_la-ecs_pre_gambit.lo \
	libprepostecs_la-ecs_pre_gmsh.lo \
	libprepostecs_la-ecs_pre_ideas.lo \
	libprepostecs_la-ecs_pre_med.lo \
	libprepostecs_la-ecs_pre_nopo.lo
libprepostecs_la_OBJECTS = $(am_libprepostecs_la_OBJECTS)
libprepostecs_la_LINK = $(LIBTOOL) $(AM_V_lt) --tag=CC \
	$(AM_LIBTOOLFLAGS) $(LIBTOOLFLAGS) --mode=link $(CCLD) \
	$(AM_CFLAGS) $(CFLAGS) $(libprepostecs_la_LDFLAGS) $(LDFLAGS) \
	-o $@
AM_V_P = $(am__v_P_@AM_V@)
am__v_P_ = $(am__v_P_@AM_DEFAULT_V@)
am__v_P_0 = false
am__v_P_1 = :
AM_V_GEN = $(am__v_GEN_@AM_V@)
am__v_GEN_ = $(am__v_GEN_@AM_DEFAULT_V@)
am__v_GEN_0 = @echo "  GEN     " $@;
am__v_GEN_1 = 
AM_V_at = $(am__v_at_@AM_V@)
am__v_at_ = $(am__v_at_@AM_DEFAULT_V@)
am__v_at_0 = @
am__v_at_1 = 
DEFAULT_INCLUDES = -I.@am__isrc@ -I$(top_builddir)
depcomp = $(SHELL) $(top_srcdir)/build-aux/depcomp
am__depfiles_maybe = depfiles
am__mv = mv -f
COMPILE = $(CC) $(DEFS) $(DEFAULT_INCLUDES) $(INCLUDES) $(AM_CPPFLAGS) \
	$(CPPFLAGS) $(AM_CFLAGS) $(CFLAGS)
LTCOMPILE = $(LIBTOOL) $(AM_V_lt) --tag=CC $(AM_LIBTOOLFLAGS) \
	$(LIBTOOLFLAGS) --mode=compile $(CC) $(DEFS) \
	$(DEFAULT_INCLUDES) $(INCLUDES) $(AM_CPPFLAGS) $(CPPFLAGS) \
	$(AM_CFLAGS) $(CFLAGS)
AM_V_CC = $(am__v_CC_@AM_V@)
am__v_CC_ = $(am__v_CC_@AM_DEFAULT_V@)
am__v_CC_0 = @echo "  CC      " $@;
am__v_CC_1 = 
CCLD = $(CC)
LINK = $(LIBTOOL) $(AM_V_lt) --tag=CC $(AM_LIBTOOLFLAGS) \
	$(LIBTOOLFLAGS) --mode=link $(CCLD) $(AM_CFLAGS) $(CFLAGS) \
	$(AM_LDFLAGS) $(LDFLAGS) -o $@
AM_V_CCLD = $(am__v_CCLD_@AM_V@)
am__v_CCLD_ = $(am__v_CCLD_@AM_DEFAULT_V@)
am__v_CCLD_0 = @echo "  CCLD    " $@;
am__v_CCLD_1 = 
SOURCES = $(ecs_ccm_la_SOURCES) $(libecs_ccm_la_SOURCES) \
	$(libprepostecs_la_SOURCES)
DIST_SOURCES = $(am__ecs_ccm_la_SOURCES_DIST) \
	$(am__libecs_ccm_la_SOURCES_DIST) $(libprepostecs_la_SOURCES)
am__can_run_installinfo = \
  case $$AM_UPDATE_INFO_DIR in \
    n|no|NO) false;; \
    *) (install-info --version) >/dev/null 2>&1;; \
  esac
HEADERS = $(noinst_HEADERS)
am__tagged_files = $(HEADERS) $(SOURCES) $(TAGS_FILES) $(LISP)
# Read a list of newline-separated strings from the standard input,
# and print each of them once, without duplicates.  Input order is
# *not* preserved.
am__uniquify_input = $(AWK) '\
  BEGIN { nonempty = 0; } \
  { items[$$0] = 1; nonempty = 1; } \
  END { if (nonempty) { for (i in items) print i; }; } \
'
# Make sure the list of sources is unique.  This is necessary because,
# e.g., the same source file might be shared among _SOURCES variables
# for different programs/libraries.
am__define_uniq_tagged_files = \
  list='$(am__tagged_files)'; \
  unique=`for i in $$list; do \
    if test -f "$$i"; then echo $$i; else echo $(srcdir)/$$i; fi; \
  done | $(am__uniquify_input)`
ETAGS = etags
CTAGS = ctags
DISTFILES = $(DIST_COMMON) $(DIST_SOURCES) $(TEXINFOS) $(EXTRA_DIST)
ACLOCAL = @ACLOCAL@
AMTAR = @AMTAR@
AM_DEFAULT_VERBOSITY = @AM_DEFAULT_VERBOSITY@
AR = @AR@
AS = @AS@
AUTOCONF = @AUTOCONF@
AUTOHEADER = @AUTOHEADER@
AUTOMAKE = @AUTOMAKE@
AWK = @AWK@
BIBTEX = @BIBTEX@
BLASRUNPATH = @BLASRUNPATH@
BLAS_CPPFLAGS = @BLAS_CPPFLAGS@
BLAS_LDFLAGS = @BLAS_LDFLAGS@
BLAS_LIBS = @BLAS_LIBS@
CALCIUM_LIBS = @CALCIUM_LIBS@
CATALYSTRUNPATH = @CATALYSTRUNPATH@
CATALYST_CPPFLAGS = @CATALYST_CPPFLAGS@
CATALYST_CXXFLAGS = @CATALYST_CXXFLAGS@
CATALYST_LDFLAGS = @CATALYST_LDFLAGS@
CATALYST_LIBS = @CATALYST_LIBS@
CC = @CC@
CCDEPMODE = @CCDEPMODE@
CCMRUNPATH = @CCMRUNPATH@
CCM_CPPFLAGS = @CCM_CPPFLAGS@
CCM_LDFLAGS = @CCM_LDFLAGS@
CCM_LIBS = @CCM_LIBS@
CFLAGS = @CFLAGS@
CFLAGS_DBG = @CFLAGS_DBG@
CFLAGS_HOT = @CFLAGS_HOT@
CFLAGS_OPT = @CFLAGS_OPT@
CGNSRUNPATH = @CGNSRUNPATH@
CGNS_CPPFLAGS = @CGNS_CPPFLAGS@
CGNS_LDFLAGS = @CGNS_LDFLAGS@
CGNS_LIBS = @CGNS_LIBS@
CMAKE = @CMAKE@
CORBA_CXXFLAGS = @CORBA_CXXFLAGS@
CORBA_INCLUDES = @CORBA_INCLUDES@
CORBA_LIBS = @CORBA_LIBS@
CORBA_ROOT = @CORBA_ROOT@
CPP = @CPP@
CPPFLAGS = @CPPFLAGS@
CS_LD = @CS_LD@
CXX = @CXX@
CXXCPP = @CXXCPP@
CXXDEPMODE = @CXXDEPMODE@
CXXFLAGS = @CXXFLAGS@
CXXFLAGS_DBG = @CXXFLAGS_DBG@
CXXFLAGS_HOT = @CXXFLAGS_HOT@
CXXFLAGS_OPT = @CXXFLAGS_OPT@
CYGPATH_W = @CYGPATH_W@
DEFS = @DEFS@
DEPDIR = @DEPDIR@
DLLTOOL = @DLLTOOL@
DOT = @DOT@
DOXYGEN = @DOXYGEN@
DSYMUTIL = @DSYMUTIL@
DUMPBIN = @DUMPBIN@
ECHO_C = @ECHO_C@
ECHO_N = @ECHO_N@
ECHO_T = @ECHO_T@
EGREP = @EGREP@
EOSRUNPATH = @EOSRUNPATH@
EOS_CPPFLAGS = @EOS_CPPFLAGS@
EOS_LDFLAGS = @EOS_LDFLAGS@
EOS_LIBS = @EOS_LIBS@
EXEEXT = @EXEEXT@
FC = @FC@
FCFLAGS = @FCFLAGS@
FCFLAGS_DBG = @FCFLAGS_DBG@
FCFLAGS_HOT = @FCFLAGS_HOT@
FCFLAGS_OPT = @FCFLAGS_OPT@
FCLIBS = @FCLIBS@
FCMODEXT = @FCMODEXT@
FCMODINCLUDE = @FCMODINCLUDE@
FGREP = @FGREP@
FIG2DEV = @FIG2DEV@
FREESTEAMRUNPATH = @FREESTEAMRUNPATH@
FREESTEAM_CPPFLAGS = @FREESTEAM_CPPFLAGS@
FREESTEAM_LDFLAGS = @FREESTEAM_LDFLAGS@
FREESTEAM_LIBS = @FREESTEAM_LIBS@
GETTEXT_MACRO_VERSION = @GETTEXT_MACRO_VERSION@
GMSGFMT = @GMSGFMT@
GMSGFMT_015 = @GMSGFMT_015@
GREP = @GREP@
HDF5RUNPATH = @HDF5RUNPATH@
HDF5_CPPFLAGS = @HDF5_CPPFLAGS@
HDF5_CPPFLAGS_MPI = @HDF5_CPPFLAGS_MPI@
HDF5_LDFLAGS = @HDF5_LDFLAGS@
HDF5_LDFLAGS_MPI = @HDF5_LDFLAGS_MPI@
HDF5_LIBS = @HDF5_LIBS@
HDF5_LIBS_MPI = @HDF5_LIBS_MPI@
IDL = @IDL@
IDLCXXFLAGS = @IDLCXXFLAGS@
IDLPYFLAGS = @IDLPYFLAGS@
IDL_CLN_CXX = @IDL_CLN_CXX@
IDL_CLN_H = @IDL_CLN_H@
IDL_CLN_OBJ = @IDL_CLN_OBJ@
IDL_SRV_CXX = @IDL_SRV_CXX@
IDL_SRV_H = @IDL_SRV_H@
IDL_SRV_OBJ = @IDL_SRV_OBJ@
INSTALL = @INSTALL@
INSTALL_DATA = @INSTALL_DATA@
INSTALL_PROGRAM = @INSTALL_PROGRAM@
INSTALL_SCRIPT = @INSTALL_SCRIPT@
INSTALL_STRIP_PROGRAM = @INSTALL_STRIP_PROGRAM@
INTLLIBS = @INTLLIBS@
INTL_MACOSX_LIBS = @INTL_MACOSX_LIBS@
LD = @LD@
LDFLAGS = @LDFLAGS@
LDRPATH = @LDRPATH@
LEX = @LEX@
LEXLIB = @LEXLIB@
LEX_OUTPUT_ROOT = @LEX_OUTPUT_ROOT@
LIBICONV = @LIBICONV@
LIBINTL = @LIBINTL@
LIBOBJS = @LIBOBJS@
LIBS = @LIBS@
LIBTOOL = @LIBTOOL@
LIBXML2_CPPFLAGS = @LIBXML2_CPPFLAGS@
LIBXML2_LDFLAGS = @LIBXML2_LDFLAGS@
LIBXML2_LIBS = @LIBXML2_LIBS@
LIPO = @LIPO@
LN_S = @LN_S@
LRELEASE = @LRELEASE@
LTLIBICONV = @LTLIBICONV@
LTLIBINTL = @LTLIBINTL@
LTLIBOBJS = @LTLIBOBJS@
MAINT = @MAINT@
MAKEINDEX = @MAKEINDEX@
MAKEINFO = @MAKEINFO@
MANIFEST_TOOL = @MANIFEST_TOOL@
MEDCOUPLINGRUNPATH = @MEDCOUPLINGRUNPATH@
MEDCOUPLING_CPPFLAGS = @MEDCOUPLING_CPPFLAGS@
MEDCOUPLING_LDFLAGS = @MEDCOUPLING_LDFLAGS@
MEDCOUPLING_LIBS = @MEDCOUPLING_LIBS@
MEDRUNPATH = @MEDRUNPATH@
MED_CPPFLAGS = @MED_CPPFLAGS@
MED_LDFLAGS = @MED_LDFLAGS@
MED_LIBS = @MED_LIBS@
METISRUNPATH = @METISRUNPATH@
METIS_CPPFLAGS = @METIS_CPPFLAGS@
METIS_LDFLAGS = @METIS_LDFLAGS@
METIS_LIBS = @METIS_LIBS@
MKDIR_P = @MKDIR_P@
MOC = @MOC@
MODULECMD = @MODULECMD@
MPI_CPPFLAGS = @MPI_CPPFLAGS@
MPI_LDFLAGS = @MPI_LDFLAGS@
MPI_LIBS = @MPI_LIBS@
MSGFMT = @MSGFMT@
MSGFMT_015 = @MSGFMT_015@
MSGMERGE = @MSGMERGE@
NM = @NM@
NMEDIT = @NMEDIT@
OBJDUMP = @OBJDUMP@
OBJEXT = @OBJEXT@
OMNIIDL = @OMNIIDL@
OMNIIDLLDLIBPATH = @OMNIIDLLDLIBPATH@
OMNIIDLPYBE = @OMNIIDLPYBE@
OMNIIDLPYTHONPATH = @OMNIIDLPYTHONPATH@
OMNIORB_CXXFLAGS = @OMNIORB_CXXFLAGS@
OMNIORB_IDLCXXFLAGS = @OMNIORB_IDLCXXFLAGS@
OMNIORB_IDLPYFLAGS = @OMNIORB_IDLPYFLAGS@
OMNIORB_IDL_CLN_CXX = @OMNIORB_IDL_CLN_CXX@
OMNIORB_IDL_CLN_H = @OMNIORB_IDL_CLN_H@
OMNIORB_IDL_CLN_OBJ = @OMNIORB_IDL_CLN_OBJ@
OMNIORB_IDL_SRV_CXX = @OMNIORB_IDL_SRV_CXX@
OMNIORB_IDL_SRV_H = @OMNIORB_IDL_SRV_H@
OMNIORB_IDL_SRV_OBJ = @OMNIORB_IDL_SRV_OBJ@
OMNIORB_IDL_TIE_CXX = @OMNIORB_IDL_TIE_CXX@
OMNIORB_IDL_TIE_H = @OMNIORB_IDL_TIE_H@
OMNIORB_INCLUDES = @OMNIORB_INCLUDES@
OMNIORB_LIBS = @OMNIORB_LIBS@
OMNIORB_ROOT = @OMNIORB_ROOT@
OTOOL = @OTOOL@
OTOOL64 = @OTOOL64@
PACKAGE = @PACKAGE@
PACKAGE_BUGREPORT = @PACKAGE_BUGREPORT@
PACKAGE_NAME = @PACKAGE_NAME@
PACKAGE_STRING = @PACKAGE_STRING@
PACKAGE_TARNAME = @PACKAGE_TARNAME@
PACKAGE_URL = @PACKAGE_URL@
PACKAGE_VERSION = @PACKAGE_VERSION@
PARAMEDMEM_CPPFLAGS = @PARAMEDMEM_CPPFLAGS@
PARAMEDMEM_LDFLAGS = @PARAMEDMEM_LDFLAGS@
PARAMEDMEM_LIBS = @PARAMEDMEM_LIBS@
PATH_SEPARATOR = @PATH_SEPARATOR@
PDFLATEX = @PDFLATEX@
PLE_CPPFLAGS = @PLE_CPPFLAGS@
PLE_LDFLAGS = @PLE_LDFLAGS@
PLE_LIBS = @PLE_LIBS@
POSUB = @POSUB@
POW_LIB = @POW_LIB@
PTHREAD_CC = @PTHREAD_CC@
PTHREAD_CFLAGS = @PTHREAD_CFLAGS@
PTHREAD_LIBS = @PTHREAD_LIBS@
PYRCC4 = @PYRCC4@
PYTHON = @PYTHON@
PYTHON_EXEC_PREFIX = @PYTHON_EXEC_PREFIX@
PYTHON_PLATFORM = @PYTHON_PLATFORM@
PYTHON_PREFIX = @PYTHON_PREFIX@
PYTHON_VERSION = @PYTHON_VERSION@
PYUIC4 = @PYUIC4@
RANLIB = @RANLIB@
SALOMEENVCMD = @SALOMEENVCMD@
SALOMEPRE = @SALOMEPRE@
SALOMERUN = @SALOMERUN@
SALOME_GUI = @SALOME_GUI@
SALOME_GUI_CPPFLAGS = @SALOME_GUI_CPPFLAGS@
SALOME_GUI_IDL = @SALOME_GUI_IDL@
SALOME_GUI_LDFLAGS = @SALOME_GUI_LDFLAGS@
SALOME_GUI_LIBS = @SALOME_GUI_LIBS@
SALOME_KERNEL = @SALOME_KERNEL@
SALOME_KERNEL_CPPFLAGS = @SALOME_KERNEL_CPPFLAGS@
SALOME_KERNEL_IDL = @SALOME_KERNEL_IDL@
SALOME_KERNEL_LDFLAGS = @SALOME_KERNEL_LDFLAGS@
SALOME_KERNEL_LIBS = @SALOME_KERNEL_LIBS@
SALOME_YACS = @SALOME_YACS@
SALOME_YACS_CPPFLAGS = @SALOME_YACS_CPPFLAGS@
SALOME_YACS_IDL = @SALOME_YACS_IDL@
SALOME_YACS_LDFLAGS = @SALOME_YACS_LDFLAGS@
SALOME_YACS_LIBS = @SALOME_YACS_LIBS@
SCOTCHRUNPATH = @SCOTCHRUNPATH@
SCOTCH_CPPFLAGS = @SCOTCH_CPPFLAGS@
SCOTCH_LDFLAGS = @SCOTCH_LDFLAGS@
SCOTCH_LIBS = @SCOTCH_LIBS@
SED = @SED@
SET_MAKE = @SET_MAKE@
SHELL = @SHELL@
SPHINXBUILD = @SPHINXBUILD@
STRIP = @STRIP@
USE_NLS = @USE_NLS@
VERSION = @VERSION@
XGETTEXT = @XGETTEXT@
XGETTEXT_015 = @XGETTEXT_015@
XGETTEXT_EXTRA_OPTIONS = @XGETTEXT_EXTRA_OPTIONS@
YACC = @YACC@
YFLAGS = @YFLAGS@
abs_builddir = @abs_builddir@
abs_srcdir = @abs_srcdir@
abs_top_builddir = @abs_top_builddir@
abs_top_srcdir = @abs_top_srcdir@
ac_ct_AR = @ac_ct_AR@
ac_ct_CC = @ac_ct_CC@
ac_ct_CXX = @ac_ct_CXX@
ac_ct_DUMPBIN = @ac_ct_DUMPBIN@
ac_ct_FC = @ac_ct_FC@
acx_pthread_config = @acx_pthread_config@
am__include = @am__include@
am__leading_dot = @am__leading_dot@
am__quote = @am__quote@
am__tar = @am__tar@
am__untar = @am__untar@
bindir = @bindir@
build = @build@
build_alias = @build_alias@
build_cpu = @build_cpu@
build_os = @build_os@
build_vendor = @build_vendor@
builddir = @builddir@
ccversion = @ccversion@
cgns_prefix = @cgns_prefix@
cs_env_modules = @cs_env_modules@
cs_have_blas = @cs_have_blas@
cs_have_calcium = @cs_have_calcium@
cs_have_catalyst = @cs_have_catalyst@
cs_have_ccm = @cs_have_ccm@
cs_have_cgns = @cs_have_cgns@
cs_have_doxygen = @cs_have_doxygen@
cs_have_eos = @cs_have_eos@
cs_have_freesteam = @cs_have_freesteam@
cs_have_frontend = @cs_have_frontend@
cs_have_gui = @cs_have_gui@
cs_have_hdf5 = @cs_have_hdf5@
cs_have_latex = @cs_have_latex@
cs_have_libxml2 = @cs_have_libxml2@
cs_have_long_gnum = @cs_have_long_gnum@
cs_have_med = @cs_have_med@
cs_have_medcoupling = @cs_have_medcoupling@
cs_have_metis = @cs_have_metis@
cs_have_mpi = @cs_have_mpi@
cs_have_openmp = @cs_have_openmp@
cs_have_paramedmem = @cs_have_paramedmem@
cs_have_salome_gui = @cs_have_salome_gui@
cs_have_salome_kernel = @cs_have_salome_kernel@
cs_have_salome_yacs = @cs_have_salome_yacs@
cs_have_scotch = @cs_have_scotch@
cs_have_sphinx = @cs_have_sphinx@
cs_py_have_plugins = @cs_py_have_plugins@
cs_special_user_link = @cs_special_user_link@
cs_src_revision = @cs_src_revision@
cs_tex_path_end = @cs_tex_path_end@
cs_tex_path_sep = @cs_tex_path_sep@
cs_version = @cs_version@
cs_version_full = @cs_version_full@
cs_version_short = @cs_version_short@
datadir = @datadir@
datarootdir = @datarootdir@
debug = @debug@
docdir = @docdir@
dvidir = @dvidir@
enable_shared = @enable_shared@
eos_prefix = @eos_prefix@
exec_prefix = @exec_prefix@
freesteam_prefix = @freesteam_prefix@
hdf5_prefix = @hdf5_prefix@
host = @host@
host_alias = @host_alias@
host_cpu = @host_cpu@
host_os = @host_os@
host_vendor = @host_vendor@
htmldir = @htmldir@
includedir = @includedir@
infodir = @infodir@
install_sh = @install_sh@
libdir = @libdir@
libexecdir = @libexecdir@
libxml2_prefix = @libxml2_prefix@
localedir = @localedir@
localstatedir = @localstatedir@
mandir = @mandir@
med_prefix = @med_prefix@
metis_prefix = @metis_prefix@
mkdir_p = @mkdir_p@
mpi_bindir = @mpi_bindir@
mpi_libdir = @mpi_libdir@
mpi_prefix = @mpi_prefix@
mpi_type = @mpi_type@
oldincludedir = @oldincludedir@
pdfdir = @pdfdir@
pkgpyexecdir = @pkgpyexecdir@
pkgpythondir = @pkgpythondir@
ple_type = @ple_type@
prefix = @prefix@
profile = @profile@
program_transform_name = @program_transform_name@
psdir = @psdir@
pyexecdir = @pyexecdir@
pythondir = @pythondir@
pythonversion = @pythonversion@
relocatable = @relocatable@
sbindir = @sbindir@
scotch_prefix = @scotch_prefix@
sharedstatedir = @sharedstatedir@
srcdir = @srcdir@
subdirs = @subdirs@
sysconfdir = @sysconfdir@
target = @target@
target_alias = @target_alias@
target_cpu = @target_cpu@
target_os = @target_os@
target_vendor = @target_vendor@
top_build_prefix = @top_build_prefix@
top_builddir = @top_builddir@
top_srcdir = @top_srcdir@
win_prefix = @win_prefix@
AM_CPPFLAGS = -I$(top_srcdir)/preprocessor/base -I$(top_srcdir)/preprocessor/util \
$(HDF5_CPPFLAGS) $(HDF5_CPPFLAGS_MPI) \
$(MED_CPPFLAGS) $(CGNS_CPPFLAGS)

AM_CFLAGS = $(CFLAGS_DBG) $(CFLAGS_OPT)
AM_LDFLAGS = \
$(MED_LDFLAGS) $(CGNS_LDFLAGS) $(HDF5_LDFLAGS) $(HDF5_LDFLAGS_MPI)


# Headers
noinst_HEADERS = \
ecs_table_comm.h \
ecs_table_post_cgns.h \
ecs_table_post_ens.h \
ecs_table_post.h \
ecs_table_post_med.h \
ecs_maillage_ncs.h \
ecs_maillage_post.h \
ecs_maillage_pre.h \
ecs_med.h \
ecs_med_priv.h \
ecs_post_cgns.h \
ecs_post_cgns_priv.h \
ecs_post_ens.h \
ecs_post_ens_priv.h \
ecs_post.h \
ecs_post_med.h \
ecs_pre_ccm.h \
ecs_pre_cgns.h \
ecs_pre_ens.h \
ecs_pre_gambit.h \
ecs_pre_gmsh.h \
ecs_pre.h \
ecs_pre_ideas.h \
ecs_pre_med.h \
ecs_pre_nopo.h


# Library source files
lib_LTLIBRARIES = 
pkglib_LTLIBRARIES = $(am__append_1)
noinst_LTLIBRARIES = libprepostecs.la $(am__append_2)
libprepostecs_la_LIBADD = $(am__append_3)
libprepostecs_la_CPPFLAGS = \
-DPKGLIBDIR=\"$(pkglibdir)\" \
$(AM_CPPFLAGS)

libprepostecs_la_SOURCES = \
ecs_table_comm.c \
ecs_table_post.c \
ecs_table_post_cgns.c \
ecs_table_post_ens.c \
ecs_table_post_med.c \
ecs_maillage_ncs.c \
ecs_maillage_post.c \
ecs_maillage_pre.c \
ecs_med.c \
ecs_post.c \
ecs_post_cgns.c \
ecs_post_ens.c \
ecs_post_med.c \
ecs_pre.c \
ecs_pre_cgns.c \
ecs_pre_ens.c \
ecs_pre_gambit.c \
ecs_pre_gmsh.c \
ecs_pre_ideas.c \
ecs_pre_med.c \
ecs_pre_nopo.c


# CCMIO (plugin or linked)
@HAVE_CCM_TRUE@@HAVE_PLUGINS_TRUE@ecs_ccm_la_CPPFLAGS = \
@HAVE_CCM_TRUE@@HAVE_PLUGINS_TRUE@-I$(top_srcdir)/preprocessor/base -I$(top_srcdir)/preprocessor/util \
@HAVE_CCM_TRUE@@HAVE_PLUGINS_TRUE@$(CXXFLAGS_DBG) $(CXXFLAGS_OPT) \
@HAVE_CCM_TRUE@@HAVE_PLUGINS_TRUE@$(CCM_CPPFLAGS) $(CCM_CXXFLAGS) $(MPI_CPPFLAGS)

@HAVE_CCM_TRUE@@HAVE_PLUGINS_TRUE@ecs_ccm_la_LIBADD = $(CCM_LDFLAGS) $(CCM_LIBS) $(CCMRUNPATH)
@HAVE_CCM_TRUE@@HAVE_PLUGINS_TRUE@ecs_ccm_la_SOURCES = ecs_pre_ccm.c
@HAVE_CCM_TRUE@@HAVE_PLUGINS_TRUE@ecs_ccm_la_LDFLAGS = -module -avoid-version
@HAVE_CCM_TRUE@@HAVE_PLUGINS_FALSE@libecs_ccm_la_CPPFLAGS = \
@HAVE_CCM_TRUE@@HAVE_PLUGINS_FALSE@-I$(top_srcdir)/preprocessor/base -I$(top_srcdir)/preprocessor/util \
@HAVE_CCM_TRUE@@HAVE_PLUGINS_FALSE@$(CXXFLAGS_DBG) $(CXXFLAGS_OPT) \
@HAVE_CCM_TRUE@@HAVE_PLUGINS_FALSE@$(CCM_CPPFLAGS) $(CCM_CXXFLAGS) $(MPI_CPPFLAGS)

@HAVE_CCM_TRUE@@HAVE_PLUGINS_FALSE@libecs_ccm_la_LIBADD = $(CCM_LDFLAGS) $(CCM_LIBS) $(CCMRUNPATH)
@HAVE_CCM_TRUE@@HAVE_PLUGINS_FALSE@libecs_ccm_la_SOURCES = ecs_pre_ccm.c
libprepostecs_la_LDFLAGS = -no-undefined
all: all-am

.SUFFIXES:
.SUFFIXES: .c .lo .o .obj
$(srcdir)/Makefile.in: @MAINTAINER_MODE_TRUE@ $(srcdir)/Makefile.am  $(am__configure_deps)
	@for dep in $?; do \
	  case '$(am__configure_deps)' in \
	    *$$dep*) \
	      ( cd $(top_builddir) && $(MAKE) $(AM_MAKEFLAGS) am--refresh ) \
	        && { if test -f $@; then exit 0; else break; fi; }; \
	      exit 1;; \
	  esac; \
	done; \
	echo ' cd $(top_srcdir) && $(AUTOMAKE) --foreign preprocessor/pre-post/Makefile'; \
	$(am__cd) $(top_srcdir) && \
	  $(AUTOMAKE) --foreign preprocessor/pre-post/Makefile
.PRECIOUS: Makefile
Makefile: $(srcdir)/Makefile.in $(top_builddir)/config.status
	@case '$?' in \
	  *config.status*) \
	    cd $(top_builddir) && $(MAKE) $(AM_MAKEFLAGS) am--refresh;; \
	  *) \
	    echo ' cd $(top_builddir) && $(SHELL) ./config.status $(subdir)/$@ $(am__depfiles_maybe)'; \
	    cd $(top_builddir) && $(SHELL) ./config.status $(subdir)/$@ $(am__depfiles_maybe);; \
	esac;

$(top_builddir)/config.status: $(top_srcdir)/configure $(CONFIG_STATUS_DEPENDENCIES)
	cd $(top_builddir) && $(MAKE) $(AM_MAKEFLAGS) am--refresh

$(top_srcdir)/configure: @MAINTAINER_MODE_TRUE@ $(am__configure_deps)
	cd $(top_builddir) && $(MAKE) $(AM_MAKEFLAGS) am--refresh
$(ACLOCAL_M4): @MAINTAINER_MODE_TRUE@ $(am__aclocal_m4_deps)
	cd $(top_builddir) && $(MAKE) $(AM_MAKEFLAGS) am--refresh
$(am__aclocal_m4_deps):

install-libLTLIBRARIES: $(lib_LTLIBRARIES)
	@$(NORMAL_INSTALL)
	@list='$(lib_LTLIBRARIES)'; test -n "$(libdir)" || list=; \
	list2=; for p in $$list; do \
	  if test -f $$p; then \
	    list2="$$list2 $$p"; \
	  else :; fi; \
	done; \
	test -z "$$list2" || { \
	  echo " $(MKDIR_P) '$(DESTDIR)$(libdir)'"; \
	  $(MKDIR_P) "$(DESTDIR)$(libdir)" || exit 1; \
	  echo " $(LIBTOOL) $(AM_LIBTOOLFLAGS) $(LIBTOOLFLAGS) --mode=install $(INSTALL) $(INSTALL_STRIP_FLAG) $$list2 '$(DESTDIR)$(libdir)'"; \
	  $(LIBTOOL) $(AM_LIBTOOLFLAGS) $(LIBTOOLFLAGS) --mode=install $(INSTALL) $(INSTALL_STRIP_FLAG) $$list2 "$(DESTDIR)$(libdir)"; \
	}

uninstall-libLTLIBRARIES:
	@$(NORMAL_UNINSTALL)
	@list='$(lib_LTLIBRARIES)'; test -n "$(libdir)" || list=; \
	for p in $$list; do \
	  $(am__strip_dir) \
	  echo " $(LIBTOOL) $(AM_LIBTOOLFLAGS) $(LIBTOOLFLAGS) --mode=uninstall rm -f '$(DESTDIR)$(libdir)/$$f'"; \
	  $(LIBTOOL) $(AM_LIBTOOLFLAGS) $(LIBTOOLFLAGS) --mode=uninstall rm -f "$(DESTDIR)$(libdir)/$$f"; \
	done

clean-libLTLIBRARIES:
	-test -z "$(lib_LTLIBRARIES)" || rm -f $(lib_LTLIBRARIES)
	@list='$(lib_LTLIBRARIES)'; \
	locs=`for p in $$list; do echo $$p; done | \
	      sed 's|^[^/]*$$|.|; s|/[^/]*$$||; s|$$|/so_locations|' | \
	      sort -u`; \
	test -z "$$locs" || { \
	  echo rm -f $${locs}; \
	  rm -f $${locs}; \
	}

clean-noinstLTLIBRARIES:
	-test -z "$(noinst_LTLIBRARIES)" || rm -f $(noinst_LTLIBRARIES)
	@list='$(noinst_LTLIBRARIES)'; \
	locs=`for p in $$list; do echo $$p; done | \
	      sed 's|^[^/]*$$|.|; s|/[^/]*$$||; s|$$|/so_locations|' | \
	      sort -u`; \
	test -z "$$locs" || { \
	  echo rm -f $${locs}; \
	  rm -f $${locs}; \
	}

install-pkglibLTLIBRARIES: $(pkglib_LTLIBRARIES)
	@$(NORMAL_INSTALL)
	@list='$(pkglib_LTLIBRARIES)'; test -n "$(pkglibdir)" || list=; \
	list2=; for p in $$list; do \
	  if test -f $$p; then \
	    list2="$$list2 $$p"; \
	  else :; fi; \
	done; \
	test -z "$$list2" || { \
	  echo " $(MKDIR_P) '$(DESTDIR)$(pkglibdir)'"; \
	  $(MKDIR_P) "$(DESTDIR)$(pkglibdir)" || exit 1; \
	  echo " $(LIBTOOL) $(AM_LIBTOOLFLAGS) $(LIBTOOLFLAGS) --mode=install $(INSTALL) $(INSTALL_STRIP_FLAG) $$list2 '$(DESTDIR)$(pkglibdir)'"; \
	  $(LIBTOOL) $(AM_LIBTOOLFLAGS) $(LIBTOOLFLAGS) --mode=install $(INSTALL) $(INSTALL_STRIP_FLAG) $$list2 "$(DESTDIR)$(pkglibdir)"; \
	}

uninstall-pkglibLTLIBRARIES:
	@$(NORMAL_UNINSTALL)
	@list='$(pkglib_LTLIBRARIES)'; test -n "$(pkglibdir)" || list=; \
	for p in $$list; do \
	  $(am__strip_dir) \
	  echo " $(LIBTOOL) $(AM_LIBTOOLFLAGS) $(LIBTOOLFLAGS) --mode=uninstall rm -f '$(DESTDIR)$(pkglibdir)/$$f'"; \
	  $(LIBTOOL) $(AM_LIBTOOLFLAGS) $(LIBTOOLFLAGS) --mode=uninstall rm -f "$(DESTDIR)$(pkglibdir)/$$f"; \
	done

clean-pkglibLTLIBRARIES:
	-test -z "$(pkglib_LTLIBRARIES)" || rm -f $(pkglib_LTLIBRARIES)
	@list='$(pkglib_LTLIBRARIES)'; \
	locs=`for p in $$list; do echo $$p; done | \
	      sed 's|^[^/]*$$|.|; s|/[^/]*$$||; s|$$|/so_locations|' | \
	      sort -u`; \
	test -z "$$locs" || { \
	  echo rm -f $${locs}; \
	  rm -f $${locs}; \
	}

ecs_ccm.la: $(ecs_ccm_la_OBJECTS) $(ecs_ccm_la_DEPENDENCIES) $(EXTRA_ecs_ccm_la_DEPENDENCIES) 
	$(AM_V_CCLD)$(ecs_ccm_la_LINK) $(am_ecs_ccm_la_rpath) $(ecs_ccm_la_OBJECTS) $(ecs_ccm_la_LIBADD) $(LIBS)

libecs_ccm.la: $(libecs_ccm_la_OBJECTS) $(libecs_ccm_la_DEPENDENCIES) $(EXTRA_libecs_ccm_la_DEPENDENCIES) 
	$(AM_V_CCLD)$(LINK) $(am_libecs_ccm_la_rpath) $(libecs_ccm_la_OBJECTS) $(libecs_ccm_la_LIBADD) $(LIBS)

libprepostecs.la: $(libprepostecs_la_OBJECTS) $(libprepostecs_la_DEPENDENCIES) $(EXTRA_libprepostecs_la_DEPENDENCIES) 
	$(AM_V_CCLD)$(libprepostecs_la_LINK)  $(libprepostecs_la_OBJECTS) $(libprepostecs_la_LIBADD) $(LIBS)

mostlyclean-compile:
	-rm -f *.$(OBJEXT)

distclean-compile:
	-rm -f *.tab.c

@AMDEP_TRUE@@am__include@ @am__quote@./$(DEPDIR)/ecs_ccm_la-ecs_pre_ccm.Plo@am__quote@
@AMDEP_TRUE@@am__include@ @am__quote@./$(DEPDIR)/libecs_ccm_la-ecs_pre_ccm.Plo@am__quote@
@AMDEP_TRUE@@am__include@ @am__quote@./$(DEPDIR)/libprepostecs_la-ecs_maillage_ncs.Plo@am__quote@
@AMDEP_TRUE@@am__include@ @am__quote@./$(DEPDIR)/libprepostecs_la-ecs_maillage_post.Plo@am__quote@
@AMDEP_TRUE@@am__include@ @am__quote@./$(DEPDIR)/libprepostecs_la-ecs_maillage_pre.Plo@am__quote@
@AMDEP_TRUE@@am__include@ @am__quote@./$(DEPDIR)/libprepostecs_la-ecs_med.Plo@am__quote@
@AMDEP_TRUE@@am__include@ @am__quote@./$(DEPDIR)/libprepostecs_la-ecs_post.Plo@am__quote@
@AMDEP_TRUE@@am__include@ @am__quote@./$(DEPDIR)/libprepostecs_la-ecs_post_cgns.Plo@am__quote@
@AMDEP_TRUE@@am__include@ @am__quote@./$(DEPDIR)/libprepostecs_la-ecs_post_ens.Plo@am__quote@
@AMDEP_TRUE@@am__include@ @am__quote@./$(DEPDIR)/libprepostecs_la-ecs_post_med.Plo@am__quote@
@AMDEP_TRUE@@am__include@ @am__quote@./$(DEPDIR)/libprepostecs_la-ecs_pre.Plo@am__quote@
@AMDEP_TRUE@@am__include@ @am__quote@./$(DEPDIR)/libprepostecs_la-ecs_pre_cgns.Plo@am__quote@
@AMDEP_TRUE@@am__include@ @am__quote@./$(DEPDIR)/libprepostecs_la-ecs_pre_ens.Plo@am__quote@
@AMDEP_TRUE@@am__include@ @am__quote@./$(DEPDIR)/libprepostecs_la-ecs_pre_gambit.Plo@am__quote@
@AMDEP_TRUE@@am__include@ @am__quote@./$(DEPDIR)/libprepostecs_la-ecs_pre_gmsh.Plo@am__quote@
@AMDEP_TRUE@@am__include@ @am__quote@./$(DEPDIR)/libprepostecs_la-ecs_pre_ideas.Plo@am__quote@
@AMDEP_TRUE@@am__include@ @am__quote@./$(DEPDIR)/libprepostecs_la-ecs_pre_med.Plo@am__quote@
@AMDEP_TRUE@@am__include@ @am__quote@./$(DEPDIR)/libprepostecs_la-ecs_pre_nopo.Plo@am__quote@
@AMDEP_TRUE@@am__include@ @am__quote@./$(DEPDIR)/libprepostecs_la-ecs_table_comm.Plo@am__quote@
@AMDEP_TRUE@@am__include@ @am__quote@./$(DEPDIR)/libprepostecs_la-ecs_table_post.Plo@am__quote@
@AMDEP_TRUE@@am__include@ @am__quote@./$(DEPDIR)/libprepostecs_la-ecs_table_post_cgns.Plo@am__quote@
@AMDEP_TRUE@@am__include@ @am__quote@./$(DEPDIR)/libprepostecs_la-ecs_table_post_ens.Plo@am__quote@
@AMDEP_TRUE@@am__include@ @am__quote@./$(DEPDIR)/libprepostecs_la-ecs_table_post_med.Plo@am__quote@

.c.o:
@am__fastdepCC_TRUE@	$(AM_V_CC)$(COMPILE) -MT $@ -MD -MP -MF $(DEPDIR)/$*.Tpo -c -o $@ $<
@am__fastdepCC_TRUE@	$(AM_V_at)$(am__mv) $(DEPDIR)/$*.Tpo $(DEPDIR)/$*.Po
@AMDEP_TRUE@@am__fastdepCC_FALSE@	$(AM_V_CC)source='$<' object='$@' libtool=no @AMDEPBACKSLASH@
@AMDEP_TRUE@@am__fastdepCC_FALSE@	DEPDIR=$(DEPDIR) $(CCDEPMODE) $(depcomp) @AMDEPBACKSLASH@
@am__fastdepCC_FALSE@	$(AM_V_CC@am__nodep@)$(COMPILE) -c -o $@ $<

.c.obj:
@am__fastdepCC_TRUE@	$(AM_V_CC)$(COMPILE) -MT $@ -MD -MP -MF $(DEPDIR)/$*.Tpo -c -o $@ `$(CYGPATH_W) '$<'`
@am__fastdepCC_TRUE@	$(AM_V_at)$(am__mv) $(DEPDIR)/$*.Tpo $(DEPDIR)/$*.Po
@AMDEP_TRUE@@am__fastdepCC_FALSE@	$(AM_V_CC)source='$<' object='$@' libtool=no @AMDEPBACKSLASH@
@AMDEP_TRUE@@am__fastdepCC_FALSE@	DEPDIR=$(DEPDIR) $(CCDEPMODE) $(depcomp) @AMDEPBACKSLASH@
@am__fastdepCC_FALSE@	$(AM_V_CC@am__nodep@)$(COMPILE) -c -o $@ `$(CYGPATH_W) '$<'`

.c.lo:
@am__fastdepCC_TRUE@	$(AM_V_CC)$(LTCOMPILE) -MT $@ -MD -MP -MF $(DEPDIR)/$*.Tpo -c -o $@ $<
@am__fastdepCC_TRUE@	$(AM_V_at)$(am__mv) $(DEPDIR)/$*.Tpo $(DEPDIR)/$*.Plo
@AMDEP_TRUE@@am__fastdepCC_FALSE@	$(AM_V_CC)source='$<' object='$@' libtool=yes @AMDEPBACKSLASH@
@AMDEP_TRUE@@am__fastdepCC_FALSE@	DEPDIR=$(DEPDIR) $(CCDEPMODE) $(depcomp) @AMDEPBACKSLASH@
@am__fastdepCC_FALSE@	$(AM_V_CC@am__nodep@)$(LTCOMPILE) -c -o $@ $<

ecs_ccm_la-ecs_pre_ccm.lo: ecs_pre_ccm.c
@am__fastdepCC_TRUE@	$(AM_V_CC)$(LIBTOOL) $(AM_V_lt) --tag=CC $(AM_LIBTOOLFLAGS) $(LIBTOOLFLAGS) --mode=compile $(CC) $(DEFS) $(DEFAULT_INCLUDES) $(INCLUDES) $(ecs_ccm_la_CPPFLAGS) $(CPPFLAGS) $(AM_CFLAGS) $(CFLAGS) -MT ecs_ccm_la-ecs_pre_ccm.lo -MD -MP -MF $(DEPDIR)/ecs_ccm_la-ecs_pre_ccm.Tpo -c -o ecs_ccm_la-ecs_pre_ccm.lo `test -f 'ecs_pre_ccm.c' || echo '$(srcdir)/'`ecs_pre_ccm.c
@am__fastdepCC_TRUE@	$(AM_V_at)$(am__mv) $(DEPDIR)/ecs_ccm_la-ecs_pre_ccm.Tpo $(DEPDIR)/ecs_ccm_la-ecs_pre_ccm.Plo
@AMDEP_TRUE@@am__fastdepCC_FALSE@	$(AM_V_CC)source='ecs_pre_ccm.c' object='ecs_ccm_la-ecs_pre_ccm.lo' libtool=yes @AMDEPBACKSLASH@
@AMDEP_TRUE@@am__fastdepCC_FALSE@	DEPDIR=$(DEPDIR) $(CCDEPMODE) $(depcomp) @AMDEPBACKSLASH@
@am__fastdepCC_FALSE@	$(AM_V_CC@am__nodep@)$(LIBTOOL) $(AM_V_lt) --tag=CC $(AM_LIBTOOLFLAGS) $(LIBTOOLFLAGS) --mode=compile $(CC) $(DEFS) $(DEFAULT_INCLUDES) $(INCLUDES) $(ecs_ccm_la_CPPFLAGS) $(CPPFLAGS) $(AM_CFLAGS) $(CFLAGS) -c -o ecs_ccm_la-ecs_pre_ccm.lo `test -f 'ecs_pre_ccm.c' || echo '$(srcdir)/'`ecs_pre_ccm.c

libecs_ccm_la-ecs_pre_ccm.lo: ecs_pre_ccm.c
@am__fastdepCC_TRUE@	$(AM_V_CC)$(LIBTOOL) $(AM_V_lt) --tag=CC $(AM_LIBTOOLFLAGS) $(LIBTOOLFLAGS) --mode=compile $(CC) $(DEFS) $(DEFAULT_INCLUDES) $(INCLUDES) $(libecs_ccm_la_CPPFLAGS) $(CPPFLAGS) $(AM_CFLAGS) $(CFLAGS) -MT libecs_ccm_la-ecs_pre_ccm.lo -MD -MP -MF $(DEPDIR)/libecs_ccm_la-ecs_pre_ccm.Tpo -c -o libecs_ccm_la-ecs_pre_ccm.lo `test -f 'ecs_pre_ccm.c' || echo '$(srcdir)/'`ecs_pre_ccm.c
@am__fastdepCC_TRUE@	$(AM_V_at)$(am__mv) $(DEPDIR)/libecs_ccm_la-ecs_pre_ccm.Tpo $(DEPDIR)/libecs_ccm_la-ecs_pre_ccm.Plo
@AMDEP_TRUE@@am__fastdepCC_FALSE@	$(AM_V_CC)source='ecs_pre_ccm.c' object='libecs_ccm_la-ecs_pre_ccm.lo' libtool=yes @AMDEPBACKSLASH@
@AMDEP_TRUE@@am__fastdepCC_FALSE@	DEPDIR=$(DEPDIR) $(CCDEPMODE) $(depcomp) @AMDEPBACKSLASH@
@am__fastdepCC_FALSE@	$(AM_V_CC@am__nodep@)$(LIBTOOL) $(AM_V_lt) --tag=CC $(AM_LIBTOOLFLAGS) $(LIBTOOLFLAGS) --mode=compile $(CC) $(DEFS) $(DEFAULT_INCLUDES) $(INCLUDES) $(libecs_ccm_la_CPPFLAGS) $(CPPFLAGS) $(AM_CFLAGS) $(CFLAGS) -c -o libecs_ccm_la-ecs_pre_ccm.lo `test -f 'ecs_pre_ccm.c' || echo '$(srcdir)/'`ecs_pre_ccm.c

libprepostecs_la-ecs_table_comm.lo: ecs_table_comm.c
@am__fastdepCC_TRUE@	$(AM_V_CC)$(LIBTOOL) $(AM_V_lt) --tag=CC $(AM_LIBTOOLFLAGS) $(LIBTOOLFLAGS) --mode=compile $(CC) $(DEFS) $(DEFAULT_INCLUDES) $(INCLUDES) $(libprepostecs_la_CPPFLAGS) $(CPPFLAGS) $(AM_CFLAGS) $(CFLAGS) -MT libprepostecs_la-ecs_table_comm.lo -MD -MP -MF $(DEPDIR)/libprepostecs_la-ecs_table_comm.Tpo -c -o libprepostecs_la-ecs_table_comm.lo `test -f 'ecs_table_comm.c' || echo '$(srcdir)/'`ecs_table_comm.c
@am__fastdepCC_TRUE@	$(AM_V_at)$(am__mv) $(DEPDIR)/libprepostecs_la-ecs_table_comm.Tpo $(DEPDIR)/libprepostecs_la-ecs_table_comm.Plo
@AMDEP_TRUE@@am__fastdepCC_FALSE@	$(AM_V_CC)source='ecs_table_comm.c' object='libprepostecs_la-ecs_table_comm.lo' libtool=yes @AMDEPBACKSLASH@
@AMDEP_TRUE@@am__fastdepCC_FALSE@	DEPDIR=$(DEPDIR) $(CCDEPMODE) $(depcomp) @AMDEPBACKSLASH@
@am__fastdepCC_FALSE@	$(AM_V_CC@am__nodep@)$(LIBTOOL) $(AM_V_lt) --tag=CC $(AM_LIBTOOLFLAGS) $(LIBTOOLFLAGS) --mode=compile $(CC) $(DEFS) $(DEFAULT_INCLUDES) $(INCLUDES) $(libprepostecs_la_CPPFLAGS) $(CPPFLAGS) $(AM_CFLAGS) $(CFLAGS) -c -o libprepostecs_la-ecs_table_comm.lo `test -f 'ecs_table_comm.c' || echo '$(srcdir)/'`ecs_table_comm.c

libprepostecs_la-ecs_table_post.lo: ecs_table_post.c
@am__fastdepCC_TRUE@	$(AM_V_CC)$(LIBTOOL) $(AM_V_lt) --tag=CC $(AM_LIBTOOLFLAGS) $(LIBTOOLFLAGS) --mode=compile $(CC) $(DEFS) $(DEFAULT_INCLUDES) $(INCLUDES) $(libprepostecs_la_CPPFLAGS) $(CPPFLAGS) $(AM_CFLAGS) $(CFLAGS) -MT libprepostecs_la-ecs_table_post.lo -MD -MP -MF $(DEPDIR)/libprepostecs_la-ecs_table_post.Tpo -c -o libprepostecs_la-ecs_table_post.lo `test -f 'ecs_table_post.c' || echo '$(srcdir)/'`ecs_table_post.c
@am__fastdepCC_TRUE@	$(AM_V_at)$(am__mv) $(DEPDIR)/libprepostecs_la-ecs_table_post.Tpo $(DEPDIR)/libprepostecs_la-ecs_table_post.Plo
@AMDEP_TRUE@@am__fastdepCC_FALSE@	$(AM_V_CC)source='ecs_table_post.c' object='libprepostecs_la-ecs_table_post.lo' libtool=yes @AMDEPBACKSLASH@
@AMDEP_TRUE@@am__fastdepCC_FALSE@	DEPDIR=$(DEPDIR) $(CCDEPMODE) $(depcomp) @AMDEPBACKSLASH@
@am__fastdepCC_FALSE@	$(AM_V_CC@am__nodep@)$(LIBTOOL) $(AM_V_lt) --tag=CC $(AM_LIBTOOLFLAGS) $(LIBTOOLFLAGS) --mode=compile $(CC) $(DEFS) $(DEFAULT_INCLUDES) $(INCLUDES) $(libprepostecs_la_CPPFLAGS) $(CPPFLAGS) $(AM_CFLAGS) $(CFLAGS) -c -o libprepostecs_la-ecs_table_post.lo `test -f 'ecs_table_post.c' || echo '$(srcdir)/'`ecs_table_post.c

libprepostecs_la-ecs_table_post_cgns.lo: ecs_table_post_cgns.c
@am__fastdepCC_TRUE@	$(AM_V_CC)$(LIBTOOL) $(AM_V_lt) --tag=CC $(AM_LIBTOOLFLAGS) $(LIBTOOLFLAGS) --mode=compile $(CC) $(DEFS) $(DEFAULT_INCLUDES) $(INCLUDES) $(libprepostecs_la_CPPFLAGS) $(CPPFLAGS) $(AM_CFLAGS) $(CFLAGS) -MT libprepostecs_la-ecs_table_post_cgns.lo -MD -MP -MF $(DEPDIR)/libprepostecs_la-ecs_table_post_cgns.Tpo -c -o libprepostecs_la-ecs_table_post_cgns.lo `test -f 'ecs_table_post_cgns.c' || echo '$(srcdir)/'`ecs_table_post_cgns.c
@am__fastdepCC_TRUE@	$(AM_V_at)$(am__mv) $(DEPDIR)/libprepostecs_la-ecs_table_post_cgns.Tpo $(DEPDIR)/libprepostecs_la-ecs_table_post_cgns.Plo
@AMDEP_TRUE@@am__fastdepCC_FALSE@	$(AM_V_CC)source='ecs_table_post_cgns.c' object='libprepostecs_la-ecs_table_post_cgns.lo' libtool=yes @AMDEPBACKSLASH@
@AMDEP_TRUE@@am__fastdepCC_FALSE@	DEPDIR=$(DEPDIR) $(CCDEPMODE) $(depcomp) @AMDEPBACKSLASH@
@am__fastdepCC_FALSE@	$(AM_V_CC@am__nodep@)$(LIBTOOL) $(AM_V_lt) --tag=CC $(AM_LIBTOOLFLAGS) $(LIBTOOLFLAGS) --mode=compile $(CC) $(DEFS) $(DEFAULT_INCLUDES) $(INCLUDES) $(libprepostecs_la_CPPFLAGS) $(CPPFLAGS) $(AM_CFLAGS) $(CFLAGS) -c -o libprepostecs_la-ecs_table_post_cgns.lo `test -f 'ecs_table_post_cgns.c' || echo '$(srcdir)/'`ecs_table_post_cgns.c

libprepostecs_la-ecs_table_post_ens.lo: ecs_table_post_ens.c
@am__fastdepCC_TRUE@	$(AM_V_CC)$(LIBTOOL) $(AM_V_lt) --tag=CC $(AM_LIBTOOLFLAGS) $(LIBTOOLFLAGS) --mode=compile $(CC) $(DEFS) $(DEFAULT_INCLUDES) $(INCLUDES) $(libprepostecs_la_CPPFLAGS) $(CPPFLAGS) $(AM_CFLAGS) $(CFLAGS) -MT libprepostecs_la-ecs_table_post_ens.lo -MD -MP -MF $(DEPDIR)/libprepostecs_la-ecs_table_post_ens.Tpo -c -o libprepostecs_la-ecs_table_post_ens.lo `test -f 'ecs_table_post_ens.c' || echo '$(srcdir)/'`ecs_table_post_ens.c
@am__fastdepCC_TRUE@	$(AM_V_at)$(am__mv) $(DEPDIR)/libprepostecs_la-ecs_table_post_ens.Tpo $(DEPDIR)/libprepostecs_la-ecs_table_post_ens.Plo
@AMDEP_TRUE@@am__fastdepCC_FALSE@	$(AM_V_CC)source='ecs_table_post_ens.c' object='libprepostecs_la-ecs_table_post_ens.lo' libtool=yes @AMDEPBACKSLASH@
@AMDEP_TRUE@@am__fastdepCC_FALSE@	DEPDIR=$(DEPDIR) $(CCDEPMODE) $(depcomp) @AMDEPBACKSLASH@
@am__fastdepCC_FALSE@	$(AM_V_CC@am__nodep@)$(LIBTOOL) $(AM_V_lt) --tag=CC $(AM_LIBTOOLFLAGS) $(LIBTOOLFLAGS) --mode=compile $(CC) $(DEFS) $(DEFAULT_INCLUDES) $(INCLUDES) $(libprepostecs_la_CPPFLAGS) $(CPPFLAGS) $(AM_CFLAGS) $(CFLAGS) -c -o libprepostecs_la-ecs_table_post_ens.lo `test -f 'ecs_table_post_ens.c' || echo '$(srcdir)/'`ecs_table_post_ens.c

libprepostecs_la-ecs_table_post_med.lo: ecs_table_post_med.c
@am__fastdepCC_TRUE@	$(AM_V_CC)$(LIBTOOL) $(AM_V_lt) --tag=CC $(AM_LIBTOOLFLAGS) $(LIBTOOLFLAGS) --mode=compile $(CC) $(DEFS) $(DEFAULT_INCLUDES) $(INCLUDES) $(libprepostecs_la_CPPFLAGS) $(CPPFLAGS) $(AM_CFLAGS) $(CFLAGS) -MT libprepostecs_la-ecs_table_post_med.lo -MD -MP -MF $(DEPDIR)/libprepostecs_la-ecs_table_post_med.Tpo -c -o libprepostecs_la-ecs_table_post_med.lo `test -f 'ecs_table_post_med.c' || echo '$(srcdir)/'`ecs_table_post_med.c
@am__fastdepCC_TRUE@	$(AM_V_at)$(am__mv) $(DEPDIR)/libprepostecs_la-ecs_table_post_med.Tpo $(DEPDIR)/libprepostecs_la-ecs_table_post_med.Plo
@AMDEP_TRUE@@am__fastdepCC_FALSE@	$(AM_V_CC)source='ecs_table_post_med.c' object='libprepostecs_la-ecs_table_post_med.lo' libtool=yes @AMDEPBACKSLASH@
@AMDEP_TRUE@@am__fastdepCC_FALSE@	DEPDIR=$(DEPDIR) $(CCDEPMODE) $(depcomp) @AMDEPBACKSLASH@
@am__fastdepCC_FALSE@	$(AM_V_CC@am__nodep@)$(LIBTOOL) $(AM_V_lt) --tag=CC $(AM_LIBTOOLFLAGS) $(LIBTOOLFLAGS) --mode=compile $(CC) $(DEFS) $(DEFAULT_INCLUDES) $(INCLUDES) $(libprepostecs_la_CPPFLAGS) $(CPPFLAGS) $(AM_CFLAGS) $(CFLAGS) -c -o libprepostecs_la-ecs_table_post_med.lo `test -f 'ecs_table_post_med.c' || echo '$(srcdir)/'`ecs_table_post_med.c

libprepostecs_la-ecs_maillage_ncs.lo: ecs_maillage_ncs.c
@am__fastdepCC_TRUE@	$(AM_V_CC)$(LIBTOOL) $(AM_V_lt) --tag=CC $(AM_LIBTOOLFLAGS) $(LIBTOOLFLAGS) --mode=compile $(CC) $(DEFS) $(DEFAULT_INCLUDES) $(INCLUDES) $(libprepostecs_la_CPPFLAGS) $(CPPFLAGS) $(AM_CFLAGS) $(CFLAGS) -MT libprepostecs_la-ecs_maillage_ncs.lo -MD -MP -MF $(DEPDIR)/libprepostecs_la-ecs_maillage_ncs.Tpo -c -o libprepostecs_la-ecs_maillage_ncs.lo `test -f 'ecs_maillage_ncs.c' || echo '$(srcdir)/'`ecs_maillage_ncs.c
@am__fastdepCC_TRUE@	$(AM_V_at)$(am__mv) $(DEPDIR)/libprepostecs_la-ecs_maillage_ncs.Tpo $(DEPDIR)/libprepostecs_la-ecs_maillage_ncs.Plo
@AMDEP_TRUE@@am__fastdepCC_FALSE@	$(AM_V_CC)source='ecs_maillage_ncs.c' object='libprepostecs_la-ecs_maillage_ncs.lo' libtool=yes @AMDEPBACKSLASH@
@AMDEP_TRUE@@am__fastdepCC_FALSE@	DEPDIR=$(DEPDIR) $(CCDEPMODE) $(depcomp) @AMDEPBACKSLASH@
@am__fastdepCC_FALSE@	$(AM_V_CC@am__nodep@)$(LIBTOOL) $(AM_V_lt) --tag=CC $(AM_LIBTOOLFLAGS) $(LIBTOOLFLAGS) --mode=compile $(CC) $(DEFS) $(DEFAULT_INCLUDES) $(INCLUDES) $(libprepostecs_la_CPPFLAGS) $(CPPFLAGS) $(AM_CFLAGS) $(CFLAGS) -c -o libprepostecs_la-ecs_maillage_ncs.lo `test -f 'ecs_maillage_ncs.c' || echo '$(srcdir)/'`ecs_maillage_ncs.c

libprepostecs_la-ecs_maillage_post.lo: ecs_maillage_post.c
@am__fastdepCC_TRUE@	$(AM_V_CC)$(LIBTOOL) $(AM_V_lt) --tag=CC $(AM_LIBTOOLFLAGS) $(LIBTOOLFLAGS) --mode=compile $(CC) $(DEFS) $(DEFAULT_INCLUDES) $(INCLUDES) $(libprepostecs_la_CPPFLAGS) $(CPPFLAGS) $(AM_CFLAGS) $(CFLAGS) -MT libprepostecs_la-ecs_maillage_post.lo -MD -MP -MF $(DEPDIR)/libprepostecs_la-ecs_maillage_post.Tpo -c -o libprepostecs_la-ecs_maillage_post.lo `test -f 'ecs_maillage_post.c' || echo '$(srcdir)/'`ecs_maillage_post.c
@am__fastdepCC_TRUE@	$(AM_V_at)$(am__mv) $(DEPDIR)/libprepostecs_la-ecs_maillage_post.Tpo $(DEPDIR)/libprepostecs_la-ecs_maillage_post.Plo
@AMDEP_TRUE@@am__fastdepCC_FALSE@	$(AM_V_CC)source='ecs_maillage_post.c' object='libprepostecs_la-ecs_maillage_post.lo' libtool=yes @AMDEPBACKSLASH@
@AMDEP_TRUE@@am__fastdepCC_FALSE@	DEPDIR=$(DEPDIR) $(CCDEPMODE) $(depcomp) @AMDEPBACKSLASH@
@am__fastdepCC_FALSE@	$(AM_V_CC@am__nodep@)$(LIBTOOL) $(AM_V_lt) --tag=CC $(AM_LIBTOOLFLAGS) $(LIBTOOLFLAGS) --mode=compile $(CC) $(DEFS) $(DEFAULT_INCLUDES) $(INCLUDES) $(libprepostecs_la_CPPFLAGS) $(CPPFLAGS) $(AM_CFLAGS) $(CFLAGS) -c -o libprepostecs_la-ecs_maillage_post.lo `test -f 'ecs_maillage_post.c' || echo '$(srcdir)/'`ecs_maillage_post.c

libprepostecs_la-ecs_maillage_pre.lo: ecs_maillage_pre.c
@am__fastdepCC_TRUE@	$(AM_V_CC)$(LIBTOOL) $(AM_V_lt) --tag=CC $(AM_LIBTOOLFLAGS) $(LIBTOOLFLAGS) --mode=compile $(CC) $(DEFS) $(DEFAULT_INCLUDES) $(INCLUDES) $(libprepostecs_la_CPPFLAGS) $(CPPFLAGS) $(AM_CFLAGS) $(CFLAGS) -MT libprepostecs_la-ecs_maillage_pre.lo -MD -MP -MF $(DEPDIR)/libprepostecs_la-ecs_maillage_pre.Tpo -c -o libprepostecs_la-ecs_maillage_pre.lo `test -f 'ecs_maillage_pre.c' || echo '$(srcdir)/'`ecs_maillage_pre.c
@am__fastdepCC_TRUE@	$(AM_V_at)$(am__mv) $(DEPDIR)/libprepostecs_la-ecs_maillage_pre.Tpo $(DEPDIR)/libprepostecs_la-ecs_maillage_pre.Plo
@AMDEP_TRUE@@am__fastdepCC_FALSE@	$(AM_V_CC)source='ecs_maillage_pre.c' object='libprepostecs_la-ecs_maillage_pre.lo' libtool=yes @AMDEPBACKSLASH@
@AMDEP_TRUE@@am__fastdepCC_FALSE@	DEPDIR=$(DEPDIR) $(CCDEPMODE) $(depcomp) @AMDEPBACKSLASH@
@am__fastdepCC_FALSE@	$(AM_V_CC@am__nodep@)$(LIBTOOL) $(AM_V_lt) --tag=CC $(AM_LIBTOOLFLAGS) $(LIBTOOLFLAGS) --mode=compile $(CC) $(DEFS) $(DEFAULT_INCLUDES) $(INCLUDES) $(libprepostecs_la_CPPFLAGS) $(CPPFLAGS) $(AM_CFLAGS) $(CFLAGS) -c -o libprepostecs_la-ecs_maillage_pre.lo `test -f 'ecs_maillage_pre.c' || echo '$(srcdir)/'`ecs_maillage_pre.c

libprepostecs_la-ecs_med.lo: ecs_med.c
@am__fastdepCC_TRUE@	$(AM_V_CC)$(LIBTOOL) $(AM_V_lt) --tag=CC $(AM_LIBTOOLFLAGS) $(LIBTOOLFLAGS) --mode=compile $(CC) $(DEFS) $(DEFAULT_INCLUDES) $(INCLUDES) $(libprepostecs_la_CPPFLAGS) $(CPPFLAGS) $(AM_CFLAGS) $(CFLAGS) -MT libprepostecs_la-ecs_med.lo -MD -MP -MF $(DEPDIR)/libprepostecs_la-ecs_med.Tpo -c -o libprepostecs_la-ecs_med.lo `test -f 'ecs_med.c' || echo '$(srcdir)/'`ecs_med.c
@am__fastdepCC_TRUE@	$(AM_V_at)$(am__mv) $(DEPDIR)/libprepostecs_la-ecs_med.Tpo $(DEPDIR)/libprepostecs_la-ecs_med.Plo
@AMDEP_TRUE@@am__fastdepCC_FALSE@	$(AM_V_CC)source='ecs_med.c' object='libprepostecs_la-ecs_med.lo' libtool=yes @AMDEPBACKSLASH@
@AMDEP_TRUE@@am__fastdepCC_FALSE@	DEPDIR=$(DEPDIR) $(CCDEPMODE) $(depcomp) @AMDEPBACKSLASH@
@am__fastdepCC_FALSE@	$(AM_V_CC@am__nodep@)$(LIBTOOL) $(AM_V_lt) --tag=CC $(AM_LIBTOOLFLAGS) $(LIBTOOLFLAGS) --mode=compile $(CC) $(DEFS) $(DEFAULT_INCLUDES) $(INCLUDES) $(libprepostecs_la_CPPFLAGS) $(CPPFLAGS) $(AM_CFLAGS) $(CFLAGS) -c -o libprepostecs_la-ecs_med.lo `test -f 'ecs_med.c' || echo '$(srcdir)/'`ecs_med.c

libprepostecs_la-ecs_post.lo: ecs_post.c
@am__fastdepCC_TRUE@	$(AM_V_CC)$(LIBTOOL) $(AM_V_lt) --tag=CC $(AM_LIBTOOLFLAGS) $(LIBTOOLFLAGS) --mode=compile $(CC) $(DEFS) $(DEFAULT_INCLUDES) $(INCLUDES) $(libprepostecs_la_CPPFLAGS) $(CPPFLAGS) $(AM_CFLAGS) $(CFLAGS) -MT libprepostecs_la-ecs_post.lo -MD -MP -MF $(DEPDIR)/libprepostecs_la-ecs_post.Tpo -c -o libprepostecs_la-ecs_post.lo `test -f 'ecs_post.c' || echo '$(srcdir)/'`ecs_post.c
@am__fastdepCC_TRUE@	$(AM_V_at)$(am__mv) $(DEPDIR)/libprepostecs_la-ecs_post.Tpo $(DEPDIR)/libprepostecs_la-ecs_post.Plo
@AMDEP_TRUE@@am__fastdepCC_FALSE@	$(AM_V_CC)source='ecs_post.c' object='libprepostecs_la-ecs_post.lo' libtool=yes @AMDEPBACKSLASH@
@AMDEP_TRUE@@am__fastdepCC_FALSE@	DEPDIR=$(DEPDIR) $(CCDEPMODE) $(depcomp) @AMDEPBACKSLASH@
@am__fastdepCC_FALSE@	$(AM_V_CC@am__nodep@)$(LIBTOOL) $(AM_V_lt) --tag=CC $(AM_LIBTOOLFLAGS) $(LIBTOOLFLAGS) --mode=compile $(CC) $(DEFS) $(DEFAULT_INCLUDES) $(INCLUDES) $(libprepostecs_la_CPPFLAGS) $(CPPFLAGS) $(AM_CFLAGS) $(CFLAGS) -c -o libprepostecs_la-ecs_post.lo `test -f 'ecs_post.c' || echo '$(srcdir)/'`ecs_post.c

libprepostecs_la-ecs_post_cgns.lo: ecs_post_cgns.c
@am__fastdepCC_TRUE@	$(AM_V_CC)$(LIBTOOL) $(AM_V_lt) --tag=CC $(AM_LIBTOOLFLAGS) $(LIBTOOLFLAGS) --mode=compile $(CC) $(DEFS) $(DEFAULT_INCLUDES) $(INCLUDES) $(libprepostecs_la_CPPFLAGS) $(CPPFLAGS) $(AM_CFLAGS) $(CFLAGS) -MT libprepostecs_la-ecs_post_cgns.lo -MD -MP -MF $(DEPDIR)/libprepostecs_la-ecs_post_cgns.Tpo -c -o libprepostecs_la-ecs_post_cgns.lo `test -f 'ecs_post_cgns.c' || echo '$(srcdir)/'`ecs_post_cgns.c
@am__fastdepCC_TRUE@	$(AM_V_at)$(am__mv) $(DEPDIR)/libprepostecs_la-ecs_post_cgns.Tpo $(DEPDIR)/libprepostecs_la-ecs_post_cgns.Plo
@AMDEP_TRUE@@am__fastdepCC_FALSE@	$(AM_V_CC)source='ecs_post_cgns.c' object='libprepostecs_la-ecs_post_cgns.lo' libtool=yes @AMDEPBACKSLASH@
@AMDEP_TRUE@@am__fastdepCC_FALSE@	DEPDIR=$(DEPDIR) $(CCDEPMODE) $(depcomp) @AMDEPBACKSLASH@
@am__fastdepCC_FALSE@	$(AM_V_CC@am__nodep@)$(LIBTOOL) $(AM_V_lt) --tag=CC $(AM_LIBTOOLFLAGS) $(LIBTOOLFLAGS) --mode=compile $(CC) $(DEFS) $(DEFAULT_INCLUDES) $(INCLUDES) $(libprepostecs_la_CPPFLAGS) $(CPPFLAGS) $(AM_CFLAGS) $(CFLAGS) -c -o libprepostecs_la-ecs_post_cgns.lo `test -f 'ecs_post_cgns.c' || echo '$(srcdir)/'`ecs_post_cgns.c

libprepostecs_la-ecs_post_ens.lo: ecs_post_ens.c
@am__fastdepCC_TRUE@	$(AM_V_CC)$(LIBTOOL) $(AM_V_lt) --tag=CC $(AM_LIBTOOLFLAGS) $(LIBTOOLFLAGS) --mode=compile $(CC) $(DEFS) $(DEFAULT_INCLUDES) $(INCLUDES) $(libprepostecs_la_CPPFLAGS) $(CPPFLAGS) $(AM_CFLAGS) $(CFLAGS) -MT libprepostecs_la-ecs_post_ens.lo -MD -MP -MF $(DEPDIR)/libprepostecs_la-ecs_post_ens.Tpo -c -o libprepostecs_la-ecs_post_ens.lo `test -f 'ecs_post_ens.c' || echo '$(srcdir)/'`ecs_post_ens.c
@am__fastdepCC_TRUE@	$(AM_V_at)$(am__mv) $(DEPDIR)/libprepostecs_la-ecs_post_ens.Tpo $(DEPDIR)/libprepostecs_la-ecs_post_ens.Plo
@AMDEP_TRUE@@am__fastdepCC_FALSE@	$(AM_V_CC)source='ecs_post_ens.c' object='libprepostecs_la-ecs_post_ens.lo' libtool=yes @AMDEPBACKSLASH@
@AMDEP_TRUE@@am__fastdepCC_FALSE@	DEPDIR=$(DEPDIR) $(CCDEPMODE) $(depcomp) @AMDEPBACKSLASH@
@am__fastdepCC_FALSE@	$(AM_V_CC@am__nodep@)$(LIBTOOL) $(AM_V_lt) --tag=CC $(AM_LIBTOOLFLAGS) $(LIBTOOLFLAGS) --mode=compile $(CC) $(DEFS) $(DEFAULT_INCLUDES) $(INCLUDES) $(libprepostecs_la_CPPFLAGS) $(CPPFLAGS) $(AM_CFLAGS) $(CFLAGS) -c -o libprepostecs_la-ecs_post_ens.lo `test -f 'ecs_post_ens.c' || echo '$(srcdir)/'`ecs_post_ens.c

libprepostecs_la-ecs_post_med.lo: ecs_post_med.c
@am__fastdepCC_TRUE@	$(AM_V_CC)$(LIBTOOL) $(AM_V_lt) --tag=CC $(AM_LIBTOOLFLAGS) $(LIBTOOLFLAGS) --mode=compile $(CC) $(DEFS) $(DEFAULT_INCLUDES) $(INCLUDES) $(libprepostecs_la_CPPFLAGS) $(CPPFLAGS) $(AM_CFLAGS) $(CFLAGS) -MT libprepostecs_la-ecs_post_med.lo -MD -MP -MF $(DEPDIR)/libprepostecs_la-ecs_post_med.Tpo -c -o libprepostecs_la-ecs_post_med.lo `test -f 'ecs_post_med.c' || echo '$(srcdir)/'`ecs_post_med.c
@am__fastdepCC_TRUE@	$(AM_V_at)$(am__mv) $(DEPDIR)/libprepostecs_la-ecs_post_med.Tpo $(DEPDIR)/libprepostecs_la-ecs_post_med.Plo
@AMDEP_TRUE@@am__fastdepCC_FALSE@	$(AM_V_CC)source='ecs_post_med.c' object='libprepostecs_la-ecs_post_med.lo' libtool=yes @AMDEPBACKSLASH@
@AMDEP_TRUE@@am__fastdepCC_FALSE@	DEPDIR=$(DEPDIR) $(CCDEPMODE) $(depcomp) @AMDEPBACKSLASH@
@am__fastdepCC_FALSE@	$(AM_V_CC@am__nodep@)$(LIBTOOL) $(AM_V_lt) --tag=CC $(AM_LIBTOOLFLAGS) $(LIBTOOLFLAGS) --mode=compile $(CC) $(DEFS) $(DEFAULT_INCLUDES) $(INCLUDES) $(libprepostecs_la_CPPFLAGS) $(CPPFLAGS) $(AM_CFLAGS) $(CFLAGS) -c -o libprepostecs_la-ecs_post_med.lo `test -f 'ecs_post_med.c' || echo '$(srcdir)/'`ecs_post_med.c

libprepostecs_la-ecs_pre.lo: ecs_pre.c
@am__fastdepCC_TRUE@	$(AM_V_CC)$(LIBTOOL) $(AM_V_lt) --tag=CC $(AM_LIBTOOLFLAGS) $(LIBTOOLFLAGS) --mode=compile $(CC) $(DEFS) $(DEFAULT_INCLUDES) $(INCLUDES) $(libprepostecs_la_CPPFLAGS) $(CPPFLAGS) $(AM_CFLAGS) $(CFLAGS) -MT libprepostecs_la-ecs_pre.lo -MD -MP -MF $(DEPDIR)/libprepostecs_la-ecs_pre.Tpo -c -o libprepostecs_la-ecs_pre.lo `test -f 'ecs_pre.c' || echo '$(srcdir)/'`ecs_pre.c
@am__fastdepCC_TRUE@	$(AM_V_at)$(am__mv) $(DEPDIR)/libprepostecs_la-ecs_pre.Tpo $(DEPDIR)/libprepostecs_la-ecs_pre.Plo
@AMDEP_TRUE@@am__fastdepCC_FALSE@	$(AM_V_CC)source='ecs_pre.c' object='libprepostecs_la-ecs_pre.lo' libtool=yes @AMDEPBACKSLASH@
@AMDEP_TRUE@@am__fastdepCC_FALSE@	DEPDIR=$(DEPDIR) $(CCDEPMODE) $(depcomp) @AMDEPBACKSLASH@
@am__fastdepCC_FALSE@	$(AM_V_CC@am__nodep@)$(LIBTOOL) $(AM_V_lt) --tag=CC $(AM_LIBTOOLFLAGS) $(LIBTOOLFLAGS) --mode=compile $(CC) $(DEFS) $(DEFAULT_INCLUDES) $(INCLUDES) $(libprepostecs_la_CPPFLAGS) $(CPPFLAGS) $(AM_CFLAGS) $(CFLAGS) -c -o libprepostecs_la-ecs_pre.lo `test -f 'ecs_pre.c' || echo '$(srcdir)/'`ecs_pre.c

libprepostecs_la-ecs_pre_cgns.lo: ecs_pre_cgns.c
@am__fastdepCC_TRUE@	$(AM_V_CC)$(LIBTOOL) $(AM_V_lt) --tag=CC $(AM_LIBTOOLFLAGS) $(LIBTOOLFLAGS) --mode=compile $(CC) $(DEFS) $(DEFAULT_INCLUDES) $(INCLUDES) $(libprepostecs_la_CPPFLAGS) $(CPPFLAGS) $(AM_CFLAGS) $(CFLAGS) -MT libprepostecs_la-ecs_pre_cgns.lo -MD -MP -MF $(DEPDIR)/libprepostecs_la-ecs_pre_cgns.Tpo -c -o libprepostecs_la-ecs_pre_cgns.lo `test -f 'ecs_pre_cgns.c' || echo '$(srcdir)/'`ecs_pre_cgns.c
@am__fastdepCC_TRUE@	$(AM_V_at)$(am__mv) $(DEPDIR)/libprepostecs_la-ecs_pre_cgns.Tpo $(DEPDIR)/libprepostecs_la-ecs_pre_cgns.Plo
@AMDEP_TRUE@@am__fastdepCC_FALSE@	$(AM_V_CC)source='ecs_pre_cgns.c' object='libprepostecs_la-ecs_pre_cgns.lo' libtool=yes @AMDEPBACKSLASH@
@AMDEP_TRUE@@am__fastdepCC_FALSE@	DEPDIR=$(DEPDIR) $(CCDEPMODE) $(depcomp) @AMDEPBACKSLASH@
@am__fastdepCC_FALSE@	$(AM_V_CC@am__nodep@)$(LIBTOOL) $(AM_V_lt) --tag=CC $(AM_LIBTOOLFLAGS) $(LIBTOOLFLAGS) --mode=compile $(CC) $(DEFS) $(DEFAULT_INCLUDES) $(INCLUDES) $(libprepostecs_la_CPPFLAGS) $(CPPFLAGS) $(AM_CFLAGS) $(CFLAGS) -c -o libprepostecs_la-ecs_pre_cgns.lo `test -f 'ecs_pre_cgns.c' || echo '$(srcdir)/'`ecs_pre_cgns.c

libprepostecs_la-ecs_pre_ens.lo: ecs_pre_ens.c
@am__fastdepCC_TRUE@	$(AM_V_CC)$(LIBTOOL) $(AM_V_lt) --tag=CC $(AM_LIBTOOLFLAGS) $(LIBTOOLFLAGS) --mode=compile $(CC) $(DEFS) $(DEFAULT_INCLUDES) $(INCLUDES) $(libprepostecs_la_CPPFLAGS) $(CPPFLAGS) $(AM_CFLAGS) $(CFLAGS) -MT libprepostecs_la-ecs_pre_ens.lo -MD -MP -MF $(DEPDIR)/libprepostecs_la-ecs_pre_ens.Tpo -c -o libprepostecs_la-ecs_pre_ens.lo `test -f 'ecs_pre_ens.c' || echo '$(srcdir)/'`ecs_pre_ens.c
@am__fastdepCC_TRUE@	$(AM_V_at)$(am__mv) $(DEPDIR)/libprepostecs_la-ecs_pre_ens.Tpo $(DEPDIR)/libprepostecs_la-ecs_pre_ens.Plo
@AMDEP_TRUE@@am__fastdepCC_FALSE@	$(AM_V_CC)source='ecs_pre_ens.c' object='libprepostecs_la-ecs_pre_ens.lo' libtool=yes @AMDEPBACKSLASH@
@AMDEP_TRUE@@am__fastdepCC_FALSE@	DEPDIR=$(DEPDIR) $(CCDEPMODE) $(depcomp) @AMDEPBACKSLASH@
@am__fastdepCC_FALSE@	$(AM_V_CC@am__nodep@)$(LIBTOOL) $(AM_V_lt) --tag=CC $(AM_LIBTOOLFLAGS) $(LIBTOOLFLAGS) --mode=compile $(CC) $(DEFS) $(DEFAULT_INCLUDES) $(INCLUDES) $(libprepostecs_la_CPPFLAGS) $(CPPFLAGS) $(AM_CFLAGS) $(CFLAGS) -c -o libprepostecs_la-ecs_pre_ens.lo `test -f 'ecs_pre_ens.c' || echo '$(srcdir)/'`ecs_pre_ens.c

libprepostecs_la-ecs_pre_gambit.lo: ecs_pre_gambit.c
@am__fastdepCC_TRUE@	$(AM_V_CC)$(LIBTOOL) $(AM_V_lt) --tag=CC $(AM_LIBTOOLFLAGS) $(LIBTOOLFLAGS) --mode=compile $(CC) $(DEFS) $(DEFAULT_INCLUDES) $(INCLUDES) $(libprepostecs_la_CPPFLAGS) $(CPPFLAGS) $(AM_CFLAGS) $(CFLAGS) -MT libprepostecs_la-ecs_pre_gambit.lo -MD -MP -MF $(DEPDIR)/libprepostecs_la-ecs_pre_gambit.Tpo -c -o libprepostecs_la-ecs_pre_gambit.lo `test -f 'ecs_pre_gambit.c' || echo '$(srcdir)/'`ecs_pre_gambit.c
@am__fastdepCC_TRUE@	$(AM_V_at)$(am__mv) $(DEPDIR)/libprepostecs_la-ecs_pre_gambit.Tpo $(DEPDIR)/libprepostecs_la-ecs_pre_gambit.Plo
@AMDEP_TRUE@@am__fastdepCC_FALSE@	$(AM_V_CC)source='ecs_pre_gambit.c' object='libprepostecs_la-ecs_pre_gambit.lo' libtool=yes @AMDEPBACKSLASH@
@AMDEP_TRUE@@am__fastdepCC_FALSE@	DEPDIR=$(DEPDIR) $(CCDEPMODE) $(depcomp) @AMDEPBACKSLASH@
@am__fastdepCC_FALSE@	$(AM_V_CC@am__nodep@)$(LIBTOOL) $(AM_V_lt) --tag=CC $(AM_LIBTOOLFLAGS) $(LIBTOOLFLAGS) --mode=compile $(CC) $(DEFS) $(DEFAULT_INCLUDES) $(INCLUDES) $(libprepostecs_la_CPPFLAGS) $(CPPFLAGS) $(AM_CFLAGS) $(CFLAGS) -c -o libprepostecs_la-ecs_pre_gambit.lo `test -f 'ecs_pre_gambit.c' || echo '$(srcdir)/'`ecs_pre_gambit.c

libprepostecs_la-ecs_pre_gmsh.lo: ecs_pre_gmsh.c
@am__fastdepCC_TRUE@	$(AM_V_CC)$(LIBTOOL) $(AM_V_lt) --tag=CC $(AM_LIBTOOLFLAGS) $(LIBTOOLFLAGS) --mode=compile $(CC) $(DEFS) $(DEFAULT_INCLUDES) $(INCLUDES) $(libprepostecs_la_CPPFLAGS) $(CPPFLAGS) $(AM_CFLAGS) $(CFLAGS) -MT libprepostecs_la-ecs_pre_gmsh.lo -MD -MP -MF $(DEPDIR)/libprepostecs_la-ecs_pre_gmsh.Tpo -c -o libprepostecs_la-ecs_pre_gmsh.lo `test -f 'ecs_pre_gmsh.c' || echo '$(srcdir)/'`ecs_pre_gmsh.c
@am__fastdepCC_TRUE@	$(AM_V_at)$(am__mv) $(DEPDIR)/libprepostecs_la-ecs_pre_gmsh.Tpo $(DEPDIR)/libprepostecs_la-ecs_pre_gmsh.Plo
@AMDEP_TRUE@@am__fastdepCC_FALSE@	$(AM_V_CC)source='ecs_pre_gmsh.c' object='libprepostecs_la-ecs_pre_gmsh.lo' libtool=yes @AMDEPBACKSLASH@
@AMDEP_TRUE@@am__fastdepCC_FALSE@	DEPDIR=$(DEPDIR) $(CCDEPMODE) $(depcomp) @AMDEPBACKSLASH@
@am__fastdepCC_FALSE@	$(AM_V_CC@am__nodep@)$(LIBTOOL) $(AM_V_lt) --tag=CC $(AM_LIBTOOLFLAGS) $(LIBTOOLFLAGS) --mode=compile $(CC) $(DEFS) $(DEFAULT_INCLUDES) $(INCLUDES) $(libprepostecs_la_CPPFLAGS) $(CPPFLAGS) $(AM_CFLAGS) $(CFLAGS) -c -o libprepostecs_la-ecs_pre_gmsh.lo `test -f 'ecs_pre_gmsh.c' || echo '$(srcdir)/'`ecs_pre_gmsh.c

libprepostecs_la-ecs_pre_ideas.lo: ecs_pre_ideas.c
@am__fastdepCC_TRUE@	$(AM_V_CC)$(LIBTOOL) $(AM_V_lt) --tag=CC $(AM_LIBTOOLFLAGS) $(LIBTOOLFLAGS) --mode=compile $(CC) $(DEFS) $(DEFAULT_INCLUDES) $(INCLUDES) $(libprepostecs_la_CPPFLAGS) $(CPPFLAGS) $(AM_CFLAGS) $(CFLAGS) -MT libprepostecs_la-ecs_pre_ideas.lo -MD -MP -MF $(DEPDIR)/libprepostecs_la-ecs_pre_ideas.Tpo -c -o libprepostecs_la-ecs_pre_ideas.lo `test -f 'ecs_pre_ideas.c' || echo '$(srcdir)/'`ecs_pre_ideas.c
@am__fastdepCC_TRUE@	$(AM_V_at)$(am__mv) $(DEPDIR)/libprepostecs_la-ecs_pre_ideas.Tpo $(DEPDIR)/libprepostecs_la-ecs_pre_ideas.Plo
@AMDEP_TRUE@@am__fastdepCC_FALSE@	$(AM_V_CC)source='ecs_pre_ideas.c' object='libprepostecs_la-ecs_pre_ideas.lo' libtool=yes @AMDEPBACKSLASH@
@AMDEP_TRUE@@am__fastdepCC_FALSE@	DEPDIR=$(DEPDIR) $(CCDEPMODE) $(depcomp) @AMDEPBACKSLASH@
@am__fastdepCC_FALSE@	$(AM_V_CC@am__nodep@)$(LIBTOOL) $(AM_V_lt) --tag=CC $(AM_LIBTOOLFLAGS) $(LIBTOOLFLAGS) --mode=compile $(CC) $(DEFS) $(DEFAULT_INCLUDES) $(INCLUDES) $(libprepostecs_la_CPPFLAGS) $(CPPFLAGS) $(AM_CFLAGS) $(CFLAGS) -c -o libprepostecs_la-ecs_pre_ideas.lo `test -f 'ecs_pre_ideas.c' || echo '$(srcdir)/'`ecs_pre_ideas.c

libprepostecs_la-ecs_pre_med.lo: ecs_pre_med.c
@am__fastdepCC_TRUE@	$(AM_V_CC)$(LIBTOOL) $(AM_V_lt) --tag=CC $(AM_LIBTOOLFLAGS) $(LIBTOOLFLAGS) --mode=compile $(CC) $(DEFS) $(DEFAULT_INCLUDES) $(INCLUDES) $(libprepostecs_la_CPPFLAGS) $(CPPFLAGS) $(AM_CFLAGS) $(CFLAGS) -MT libprepostecs_la-ecs_pre_med.lo -MD -MP -MF $(DEPDIR)/libprepostecs_la-ecs_pre_med.Tpo -c -o libprepostecs_la-ecs_pre_med.lo `test -f 'ecs_pre_med.c' || echo '$(srcdir)/'`ecs_pre_med.c
@am__fastdepCC_TRUE@	$(AM_V_at)$(am__mv) $(DEPDIR)/libprepostecs_la-ecs_pre_med.Tpo $(DEPDIR)/libprepostecs_la-ecs_pre_med.Plo
@AMDEP_TRUE@@am__fastdepCC_FALSE@	$(AM_V_CC)source='ecs_pre_med.c' object='libprepostecs_la-ecs_pre_med.lo' libtool=yes @AMDEPBACKSLASH@
@AMDEP_TRUE@@am__fastdepCC_FALSE@	DEPDIR=$(DEPDIR) $(CCDEPMODE) $(depcomp) @AMDEPBACKSLASH@
@am__fastdepCC_FALSE@	$(AM_V_CC@am__nodep@)$(LIBTOOL) $(AM_V_lt) --tag=CC $(AM_LIBTOOLFLAGS) $(LIBTOOLFLAGS) --mode=compile $(CC) $(DEFS) $(DEFAULT_INCLUDES) $(INCLUDES) $(libprepostecs_la_CPPFLAGS) $(CPPFLAGS) $(AM_CFLAGS) $(CFLAGS) -c -o libprepostecs_la-ecs_pre_med.lo `test -f 'ecs_pre_med.c' || echo '$(srcdir)/'`ecs_pre_med.c

libprepostecs_la-ecs_pre_nopo.lo: ecs_pre_nopo.c
@am__fastdepCC_TRUE@	$(AM_V_CC)$(LIBTOOL) $(AM_V_lt) --tag=CC $(AM_LIBTOOLFLAGS) $(LIBTOOLFLAGS) --mode=compile $(CC) $(DEFS) $(DEFAULT_INCLUDES) $(INCLUDES) $(libprepostecs_la_CPPFLAGS) $(CPPFLAGS) $(AM_CFLAGS) $(CFLAGS) -MT libprepostecs_la-ecs_pre_nopo.lo -MD -MP -MF $(DEPDIR)/libprepostecs_la-ecs_pre_nopo.Tpo -c -o libprepostecs_la-ecs_pre_nopo.lo `test -f 'ecs_pre_nopo.c' || echo '$(srcdir)/'`ecs_pre_nopo.c
@am__fastdepCC_TRUE@	$(AM_V_at)$(am__mv) $(DEPDIR)/libprepostecs_la-ecs_pre_nopo.Tpo $(DEPDIR)/libprepostecs_la-ecs_pre_nopo.Plo
@AMDEP_TRUE@@am__fastdepCC_FALSE@	$(AM_V_CC)source='ecs_pre_nopo.c' object='libprepostecs_la-ecs_pre_nopo.lo' libtool=yes @AMDEPBACKSLASH@
@AMDEP_TRUE@@am__fastdepCC_FALSE@	DEPDIR=$(DEPDIR) $(CCDEPMODE) $(depcomp) @AMDEPBACKSLASH@
@am__fastdepCC_FALSE@	$(AM_V_CC@am__nodep@)$(LIBTOOL) $(AM_V_lt) --tag=CC $(AM_LIBTOOLFLAGS) $(LIBTOOLFLAGS) --mode=compile $(CC) $(DEFS) $(DEFAULT_INCLUDES) $(INCLUDES) $(libprepostecs_la_CPPFLAGS) $(CPPFLAGS) $(AM_CFLAGS) $(CFLAGS) -c -o libprepostecs_la-ecs_pre_nopo.lo `test -f 'ecs_pre_nopo.c' || echo '$(srcdir)/'`ecs_pre_nopo.c

mostlyclean-libtool:
	-rm -f *.lo

clean-libtool:
	-rm -rf .libs _libs

ID: $(am__tagged_files)
	$(am__define_uniq_tagged_files); mkid -fID $$unique
tags: tags-am
TAGS: tags

tags-am: $(TAGS_DEPENDENCIES) $(am__tagged_files)
	set x; \
	here=`pwd`; \
	$(am__define_uniq_tagged_files); \
	shift; \
	if test -z "$(ETAGS_ARGS)$$*$$unique"; then :; else \
	  test -n "$$unique" || unique=$$empty_fix; \
	  if test $$# -gt 0; then \
	    $(ETAGS) $(ETAGSFLAGS) $(AM_ETAGSFLAGS) $(ETAGS_ARGS) \
	      "$$@" $$unique; \
	  else \
	    $(ETAGS) $(ETAGSFLAGS) $(AM_ETAGSFLAGS) $(ETAGS_ARGS) \
	      $$unique; \
	  fi; \
	fi
ctags: ctags-am

CTAGS: ctags
ctags-am: $(TAGS_DEPENDENCIES) $(am__tagged_files)
	$(am__define_uniq_tagged_files); \
	test -z "$(CTAGS_ARGS)$$unique" \
	  || $(CTAGS) $(CTAGSFLAGS) $(AM_CTAGSFLAGS) $(CTAGS_ARGS) \
	     $$unique

GTAGS:
	here=`$(am__cd) $(top_builddir) && pwd` \
	  && $(am__cd) $(top_srcdir) \
	  && gtags -i $(GTAGS_ARGS) "$$here"
cscopelist: cscopelist-am

cscopelist-am: $(am__tagged_files)
	list='$(am__tagged_files)'; \
	case "$(srcdir)" in \
	  [\\/]* | ?:[\\/]*) sdir="$(srcdir)" ;; \
	  *) sdir=$(subdir)/$(srcdir) ;; \
	esac; \
	for i in $$list; do \
	  if test -f "$$i"; then \
	    echo "$(subdir)/$$i"; \
	  else \
	    echo "$$sdir/$$i"; \
	  fi; \
	done >> $(top_builddir)/cscope.files

distclean-tags:
	-rm -f TAGS ID GTAGS GRTAGS GSYMS GPATH tags

distdir: $(DISTFILES)
	@srcdirstrip=`echo "$(srcdir)" | sed 's/[].[^$$\\*]/\\\\&/g'`; \
	topsrcdirstrip=`echo "$(top_srcdir)" | sed 's/[].[^$$\\*]/\\\\&/g'`; \
	list='$(DISTFILES)'; \
	  dist_files=`for file in $$list; do echo $$file; done | \
	  sed -e "s|^$$srcdirstrip/||;t" \
	      -e "s|^$$topsrcdirstrip/|$(top_builddir)/|;t"`; \
	case $$dist_files in \
	  */*) $(MKDIR_P) `echo "$$dist_files" | \
			   sed '/\//!d;s|^|$(distdir)/|;s,/[^/]*$$,,' | \
			   sort -u` ;; \
	esac; \
	for file in $$dist_files; do \
	  if test -f $$file || test -d $$file; then d=.; else d=$(srcdir); fi; \
	  if test -d $$d/$$file; then \
	    dir=`echo "/$$file" | sed -e 's,/[^/]*$$,,'`; \
	    if test -d "$(distdir)/$$file"; then \
	      find "$(distdir)/$$file" -type d ! -perm -700 -exec chmod u+rwx {} \;; \
	    fi; \
	    if test -d $(srcdir)/$$file && test $$d != $(srcdir); then \
	      cp -fpR $(srcdir)/$$file "$(distdir)$$dir" || exit 1; \
	      find "$(distdir)/$$file" -type d ! -perm -700 -exec chmod u+rwx {} \;; \
	    fi; \
	    cp -fpR $$d/$$file "$(distdir)$$dir" || exit 1; \
	  else \
	    test -f "$(distdir)/$$file" \
	    || cp -p $$d/$$file "$(distdir)/$$file" \
	    || exit 1; \
	  fi; \
	done
check-am: all-am
check: check-am
all-am: Makefile $(LTLIBRARIES) $(HEADERS)
installdirs:
	for dir in "$(DESTDIR)$(libdir)" "$(DESTDIR)$(pkglibdir)"; do \
	  test -z "$$dir" || $(MKDIR_P) "$$dir"; \
	done
install: install-am
install-exec: install-exec-am
install-data: install-data-am
uninstall: uninstall-am

install-am: all-am
	@$(MAKE) $(AM_MAKEFLAGS) install-exec-am install-data-am

installcheck: installcheck-am
install-strip:
	if test -z '$(STRIP)'; then \
	  $(MAKE) $(AM_MAKEFLAGS) INSTALL_PROGRAM="$(INSTALL_STRIP_PROGRAM)" \
	    install_sh_PROGRAM="$(INSTALL_STRIP_PROGRAM)" INSTALL_STRIP_FLAG=-s \
	      install; \
	else \
	  $(MAKE) $(AM_MAKEFLAGS) INSTALL_PROGRAM="$(INSTALL_STRIP_PROGRAM)" \
	    install_sh_PROGRAM="$(INSTALL_STRIP_PROGRAM)" INSTALL_STRIP_FLAG=-s \
	    "INSTALL_PROGRAM_ENV=STRIPPROG='$(STRIP)'" install; \
	fi
mostlyclean-generic:

clean-generic:

distclean-generic:
	-test -z "$(CONFIG_CLEAN_FILES)" || rm -f $(CONFIG_CLEAN_FILES)
	-test . = "$(srcdir)" || test -z "$(CONFIG_CLEAN_VPATH_FILES)" || rm -f $(CONFIG_CLEAN_VPATH_FILES)

maintainer-clean-generic:
	@echo "This command is intended for maintainers to use"
	@echo "it deletes files that may require special tools to rebuild."
clean: clean-am

clean-am: clean-generic clean-libLTLIBRARIES clean-libtool \
	clean-noinstLTLIBRARIES clean-pkglibLTLIBRARIES mostlyclean-am

distclean: distclean-am
	-rm -rf ./$(DEPDIR)
	-rm -f Makefile
distclean-am: clean-am distclean-compile distclean-generic \
	distclean-tags

dvi: dvi-am

dvi-am:

html: html-am

html-am:

info: info-am

info-am:

install-data-am:

install-dvi: install-dvi-am

install-dvi-am:

install-exec-am: install-libLTLIBRARIES install-pkglibLTLIBRARIES

install-html: install-html-am

install-html-am:

install-info: install-info-am

install-info-am:

install-man:

install-pdf: install-pdf-am

install-pdf-am:

install-ps: install-ps-am

install-ps-am:

installcheck-am:

maintainer-clean: maintainer-clean-am
	-rm -rf ./$(DEPDIR)
	-rm -f Makefile
maintainer-clean-am: distclean-am maintainer-clean-generic

mostlyclean: mostlyclean-am

mostlyclean-am: mostlyclean-compile mostlyclean-generic \
	mostlyclean-libtool

pdf: pdf-am

pdf-am:

ps: ps-am

ps-am:

uninstall-am: uninstall-libLTLIBRARIES uninstall-pkglibLTLIBRARIES

.MAKE: install-am install-strip

.PHONY: CTAGS GTAGS TAGS all all-am check check-am clean clean-generic \
	clean-libLTLIBRARIES clean-libtool clean-noinstLTLIBRARIES \
	clean-pkglibLTLIBRARIES cscopelist-am ctags ctags-am distclean \
	distclean-compile distclean-generic distclean-libtool \
	distclean-tags distdir dvi dvi-am html html-am info info-am \
	install install-am install-data install-data-am install-dvi \
	install-dvi-am install-exec install-exec-am install-html \
	install-html-am install-info install-info-am \
	install-libLTLIBRARIES install-man install-pdf install-pdf-am \
	install-pkglibLTLIBRARIES install-ps install-ps-am \
	install-strip installcheck installcheck-am installdirs \
	maintainer-clean maintainer-clean-generic mostlyclean \
	mostlyclean-compile mostlyclean-generic mostlyclean-libtool \
	pdf pdf-am ps ps-am tags tags-am uninstall uninstall-am \
	uninstall-libLTLIBRARIES uninstall-pkglibLTLIBRARIES


# Tell versions [3.59,3.63) of GNU make to not export all variables.
# Otherwise a system limit (for SysV at least) may be exceeded.
.NOEXPORT:
