# Makefile.in generated by automake 1.14.1 from Makefile.am.
# @configure_input@

# Copyright (C) 1994-2013 Free Software Foundation, Inc.

# This Makefile.in is free software; the Free Software Foundation
# gives unlimited permission to copy and/or distribute it,
# with or without modifications, as long as this notice is preserved.

# This program is distributed in the hope that it will be useful,
# but WITHOUT ANY WARRANTY, to the extent permitted by law; without
# even the implied warranty of MERCHANTABILITY or FITNESS FOR A
# PARTICULAR PURPOSE.

@SET_MAKE@

#-------------------------------------------------------------------------------

# This file is part of Code_Saturne, a general-purpose CFD tool.
#
# Copyright (C) 1998-2016 EDF S.A.
#
# This program is free software; you can redistribute it and/or modify it under
# the terms of the GNU General Public License as published by the Free Software
# Foundation; either version 2 of the License, or (at your option) any later
# version.
#
# This program is distributed in the hope that it will be useful, but WITHOUT
# ANY WARRANTY; without even the implied warranty of MERCHANTABILITY or FITNESS
# FOR A PARTICULAR PURPOSE.  See the GNU General Public License for more
# details.
#
# You should have received a copy of the GNU General Public License along with
# this program; if not, write to the Free Software Foundation, Inc., 51 Franklin
# Street, Fifth Floor, Boston, MA 02110-1301, USA.

#-------------------------------------------------------------------------------

# PLE dependency


VPATH = @srcdir@
am__is_gnu_make = test -n '$(MAKEFILE_LIST)' && test -n '$(MAKELEVEL)'
am__make_running_with_option = \
  case $${target_option-} in \
      ?) ;; \
      *) echo "am__make_running_with_option: internal error: invalid" \
              "target option '$${target_option-}' specified" >&2; \
         exit 1;; \
  esac; \
  has_opt=no; \
  sane_makeflags=$$MAKEFLAGS; \
  if $(am__is_gnu_make); then \
    sane_makeflags=$$MFLAGS; \
  else \
    case $$MAKEFLAGS in \
      *\\[\ \	]*) \
        bs=\\; \
        sane_makeflags=`printf '%s\n' "$$MAKEFLAGS" \
          | sed "s/$$bs$$bs[$$bs $$bs	]*//g"`;; \
    esac; \
  fi; \
  skip_next=no; \
  strip_trailopt () \
  { \
    flg=`printf '%s\n' "$$flg" | sed "s/$$1.*$$//"`; \
  }; \
  for flg in $$sane_makeflags; do \
    test $$skip_next = yes && { skip_next=no; continue; }; \
    case $$flg in \
      *=*|--*) continue;; \
        -*I) strip_trailopt 'I'; skip_next=yes;; \
      -*I?*) strip_trailopt 'I';; \
        -*O) strip_trailopt 'O'; skip_next=yes;; \
      -*O?*) strip_trailopt 'O';; \
        -*l) strip_trailopt 'l'; skip_next=yes;; \
      -*l?*) strip_trailopt 'l';; \
      -[dEDm]) skip_next=yes;; \
      -[JT]) skip_next=yes;; \
    esac; \
    case $$flg in \
      *$$target_option*) has_opt=yes; break;; \
    esac; \
  done; \
  test $$has_opt = yes
am__make_dryrun = (target_option=n; $(am__make_running_with_option))
am__make_keepgoing = (target_option=k; $(am__make_running_with_option))
pkgdatadir = $(datadir)/@PACKAGE@
pkgincludedir = $(includedir)/@PACKAGE@
pkglibdir = $(libdir)/@PACKAGE@
pkglibexecdir = $(libexecdir)/@PACKAGE@
am__cd = CDPATH="$${ZSH_VERSION+.}$(PATH_SEPARATOR)" && cd
install_sh_DATA = $(install_sh) -c -m 644
install_sh_PROGRAM = $(install_sh) -c
install_sh_SCRIPT = $(install_sh) -c
INSTALL_HEADER = $(INSTALL_DATA)
transform = $(program_transform_name)
NORMAL_INSTALL = :
PRE_INSTALL = :
POST_INSTALL = :
NORMAL_UNINSTALL = :
PRE_UNINSTALL = :
POST_UNINSTALL = :
build_triplet = @build@
host_triplet = @host@
target_triplet = @target@
@HAVE_PARAMEDMEM_TRUE@am__append_1 = cs_paramedmem_coupling.hxx
@HAVE_PARAMEDMEM_TRUE@am__append_2 = libcs_paramedmem.la
@HAVE_EOS_TRUE@am__append_3 = cs_eos.hxx
@HAVE_EOS_TRUE@am__append_4 = cs_eos.la
subdir = src/base
DIST_COMMON = $(srcdir)/Makefile.in $(srcdir)/Makefile.am \
	$(top_srcdir)/build-aux/depcomp $(am__pkginclude_HEADERS_DIST)
ACLOCAL_M4 = $(top_srcdir)/aclocal.m4
am__aclocal_m4_deps = $(top_srcdir)/m4/acx_pthread.m4 \
	$(top_srcdir)/m4/cs_blas.m4 $(top_srcdir)/m4/cs_catalyst.m4 \
	$(top_srcdir)/m4/cs_ccm.m4 $(top_srcdir)/m4/cs_cgns.m4 \
	$(top_srcdir)/m4/cs_docs.m4 $(top_srcdir)/m4/cs_eos.m4 \
	$(top_srcdir)/m4/cs_fortran.m4 \
	$(top_srcdir)/m4/cs_freesteam.m4 $(top_srcdir)/m4/cs_hdf5.m4 \
	$(top_srcdir)/m4/cs_libxml2.m4 $(top_srcdir)/m4/cs_med.m4 \
	$(top_srcdir)/m4/cs_metis.m4 $(top_srcdir)/m4/cs_modules.m4 \
	$(top_srcdir)/m4/cs_mpi.m4 $(top_srcdir)/m4/cs_omniorb.m4 \
	$(top_srcdir)/m4/cs_ple.m4 $(top_srcdir)/m4/cs_salome.m4 \
	$(top_srcdir)/m4/cs_scotch.m4 $(top_srcdir)/m4/cs_zlib.m4 \
	$(top_srcdir)/m4/gettext.m4 $(top_srcdir)/m4/iconv.m4 \
	$(top_srcdir)/m4/intlmacosx.m4 $(top_srcdir)/m4/lib-ld.m4 \
	$(top_srcdir)/m4/lib-link.m4 $(top_srcdir)/m4/lib-prefix.m4 \
	$(top_srcdir)/m4/libtool.m4 $(top_srcdir)/m4/ltoptions.m4 \
	$(top_srcdir)/m4/ltsugar.m4 $(top_srcdir)/m4/ltversion.m4 \
	$(top_srcdir)/m4/lt~obsolete.m4 $(top_srcdir)/m4/nls.m4 \
	$(top_srcdir)/m4/po.m4 $(top_srcdir)/m4/progtest.m4 \
	$(top_srcdir)/configure.ac
am__configure_deps = $(am__aclocal_m4_deps) $(CONFIGURE_DEPENDENCIES) \
	$(ACLOCAL_M4)
mkinstalldirs = $(install_sh) -d
CONFIG_HEADER = $(top_builddir)/cs_config.h
CONFIG_CLEAN_FILES =
CONFIG_CLEAN_VPATH_FILES =
am__vpath_adj_setup = srcdirstrip=`echo "$(srcdir)" | sed 's|.|.|g'`;
am__vpath_adj = case $$p in \
    $(srcdir)/*) f=`echo "$$p" | sed "s|^$$srcdirstrip/||"`;; \
    *) f=$$p;; \
  esac;
am__strip_dir = f=`echo $$p | sed -e 's|^.*/||'`;
am__install_max = 40
am__nobase_strip_setup = \
  srcdirstrip=`echo "$(srcdir)" | sed 's/[].[^$$\\*|]/\\\\&/g'`
am__nobase_strip = \
  for p in $$list; do echo "$$p"; done | sed -e "s|$$srcdirstrip/||"
am__nobase_list = $(am__nobase_strip_setup); \
  for p in $$list; do echo "$$p $$p"; done | \
  sed "s| $$srcdirstrip/| |;"' / .*\//!s/ .*/ ./; s,\( .*\)/[^/]*$$,\1,' | \
  $(AWK) 'BEGIN { files["."] = "" } { files[$$2] = files[$$2] " " $$1; \
    if (++n[$$2] == $(am__install_max)) \
      { print $$2, files[$$2]; n[$$2] = 0; files[$$2] = "" } } \
    END { for (dir in files) print dir, files[dir] }'
am__base_list = \
  sed '$$!N;$$!N;$$!N;$$!N;$$!N;$$!N;$$!N;s/\n/ /g' | \
  sed '$$!N;$$!N;$$!N;$$!N;s/\n/ /g'
am__uninstall_files_from_dir = { \
  test -z "$$files" \
    || { test ! -d "$$dir" && test ! -f "$$dir" && test ! -r "$$dir"; } \
    || { echo " ( cd '$$dir' && rm -f" $$files ")"; \
         $(am__cd) "$$dir" && rm -f $$files; }; \
  }
am__installdirs = "$(DESTDIR)$(libdir)" "$(DESTDIR)$(pkglibdir)" \
	"$(DESTDIR)$(pkgincludedir)"
LTLIBRARIES = $(lib_LTLIBRARIES) $(noinst_LTLIBRARIES) \
	$(pkglib_LTLIBRARIES)
cs_eos_la_LIBADD =
am__cs_eos_la_SOURCES_DIST = cs_eos.cxx
@HAVE_EOS_TRUE@am_cs_eos_la_OBJECTS = cs_eos_la-cs_eos.lo
cs_eos_la_OBJECTS = $(am_cs_eos_la_OBJECTS)
AM_V_lt = $(am__v_lt_@AM_V@)
am__v_lt_ = $(am__v_lt_@AM_DEFAULT_V@)
am__v_lt_0 = --silent
am__v_lt_1 = 
cs_eos_la_LINK = $(LIBTOOL) $(AM_V_lt) --tag=CXX $(AM_LIBTOOLFLAGS) \
	$(LIBTOOLFLAGS) --mode=link $(CXXLD) $(AM_CXXFLAGS) \
	$(CXXFLAGS) $(cs_eos_la_LDFLAGS) $(LDFLAGS) -o $@
@HAVE_EOS_TRUE@am_cs_eos_la_rpath = -rpath $(pkglibdir)
libcs_paramedmem_la_LIBADD =
am__libcs_paramedmem_la_SOURCES_DIST = cs_paramedmem_coupling.cxx
@HAVE_PARAMEDMEM_TRUE@am_libcs_paramedmem_la_OBJECTS = libcs_paramedmem_la-cs_paramedmem_coupling.lo
libcs_paramedmem_la_OBJECTS = $(am_libcs_paramedmem_la_OBJECTS)
@HAVE_PARAMEDMEM_TRUE@am_libcs_paramedmem_la_rpath = -rpath $(libdir)
libcsbase_la_LIBADD =
am_libcsbase_la_OBJECTS = addfld.lo alelav.lo alemav.lo altycl.lo \
	calhyd.lo caltri.lo catsma.lo catsmv.lo clca66.lo clpsca.lo \
	clptrg.lo clptur.lo clsyvt.lo copain_model.lo \
	condensation_source_terms.lo condli.lo cou1di.lo cou1do.lo \
	coupbi.lo coupbo.lo codits.lo coditv.lo covofi.lo cptssy.lo \
	cpvosy.lo cregeo.lo cs_ale.lo cs_array_reduce.lo \
	cs_ast_coupling.lo cs_base_fortran.lo \
	cs_boundary_conditions.lo cs_calcium.lo csc2cl.lo csc2ts.lo \
	csccel.lo cscfbr.lo cscini.lo csclli.lo cscloc.lo cscpce.lo \
	cscpfb.lo cs_control.lo cs_coupling.lo cs_ext_neighborhood.lo \
	cs_fan.lo cs_field.lo cs_field_pointer.lo cs_field_operator.lo \
	cs_halo.lo cs_halo_perio.lo csinit.lo cs_log_iteration.lo \
	cs_log_setup.lo cs_numbering.lo cs_measures_util.lo \
	cs_mesh_tagmr.lo cs_metal_structures_tag.lo \
	cs_gas_mix_initialization.lo cs_gas_mix_physical_properties.lo \
	csopli.lo cs_opts.lo cs_parall.lo cs_parameters.lo \
	cs_physical_constants.lo cs_physical_properties.lo cs_post.lo \
	cs_post_default.lo cs_preprocess.lo cs_preprocessor_data.lo \
	cs_resource.lo cs_restart.lo cs_restart_default.lo \
	cs_rotation.lo cs_sat_coupling.lo cs_search.lo cs_selector.lo \
	cs_selector_f2c.lo cs_sort.lo cs_stokes_model.lo \
	cs_syr4_coupling.lo cs_syr_coupling.lo cs_thermal_model.lo \
	cs_tagmri.lo cs_tagmro.lo cs_time_moment.lo cs_time_plot.lo \
	cs_time_step.lo cs_tpar1d.lo cs_turbomachinery.lo \
	cs_wall_functions.lo csprnt.lo diffst.lo distpr.lo distyp.lo \
	driflu.lo dttvar.lo dvvpst.lo ecrava.lo ecrhis.lo ecrlis.lo \
	findpt.lo fldini.lo fldtri.lo fldvar.lo fldprp.lo haltyp.lo \
	idrbla.lo impini.lo iniini.lo initi1.lo initi2.lo iniusi.lo \
	iniva0.lo inivar.lo iprbla.lo lecamo.lo lecamp.lo lecamx.lo \
	majgeo.lo memfin.lo metal_structures_copain_model.lo modini.lo \
	mmtycl.lo navstv.lo newmrk.lo phyvar.lo post_util.lo precli.lo \
	predfl.lo predvv.lo prehyd.lo prmoy0.lo pthrbm.lo resopv.lo \
	resvoi.lo scalai.lo schtmp.lo stdtcl.lo strdep.lo strhis.lo \
	strini.lo strpre.lo tdesi1.lo tridim.lo tspdcv.lo typecl.lo \
	undscr.lo varpos.lo vericl.lo verini.lo verlon.lo vert1d.lo \
	visecv.lo zufall.lo
libcsbase_la_OBJECTS = $(am_libcsbase_la_OBJECTS)
libcscore_la_DEPENDENCIES = libcscorep.la \
	$(top_builddir)/src/fvm/libfvm.la
am_libcscore_la_OBJECTS = cs_all_to_all.lo cs_block_dist.lo \
	cs_block_to_part.lo cs_defs.lo cs_file.lo cs_fp_exception.lo \
	cs_interface.lo cs_io.lo cs_log.lo cs_math.lo cs_map.lo \
	cs_order.lo cs_part_to_block.lo cs_system_info.lo cs_timer.lo
libcscore_la_OBJECTS = $(am_libcscore_la_OBJECTS)
libcscore_la_LINK = $(LIBTOOL) $(AM_V_lt) --tag=CC $(AM_LIBTOOLFLAGS) \
	$(LIBTOOLFLAGS) --mode=link $(CCLD) $(AM_CFLAGS) $(CFLAGS) \
	$(libcscore_la_LDFLAGS) $(LDFLAGS) -o $@
libcscorep_la_LIBADD =
am_libcscorep_la_OBJECTS = libcscorep_la-cs_base.lo
libcscorep_la_OBJECTS = $(am_libcscorep_la_OBJECTS)
libcscorep_la_LINK = $(LIBTOOL) $(AM_V_lt) --tag=CC $(AM_LIBTOOLFLAGS) \
	$(LIBTOOLFLAGS) --mode=link $(CCLD) $(AM_CFLAGS) $(CFLAGS) \
	$(libcscorep_la_LDFLAGS) $(LDFLAGS) -o $@
libcsrenumber_la_LIBADD =
am_libcsrenumber_la_OBJECTS = libcsrenumber_la-cs_renumber.lo
libcsrenumber_la_OBJECTS = $(am_libcsrenumber_la_OBJECTS)
libcsrenumber_la_LINK = $(LIBTOOL) $(AM_V_lt) --tag=CC \
	$(AM_LIBTOOLFLAGS) $(LIBTOOLFLAGS) --mode=link $(CCLD) \
	$(AM_CFLAGS) $(CFLAGS) $(libcsrenumber_la_LDFLAGS) $(LDFLAGS) \
	-o $@
AM_V_P = $(am__v_P_@AM_V@)
am__v_P_ = $(am__v_P_@AM_DEFAULT_V@)
am__v_P_0 = false
am__v_P_1 = :
AM_V_GEN = $(am__v_GEN_@AM_V@)
am__v_GEN_ = $(am__v_GEN_@AM_DEFAULT_V@)
am__v_GEN_0 = @echo "  GEN     " $@;
am__v_GEN_1 = 
AM_V_at = $(am__v_at_@AM_V@)
am__v_at_ = $(am__v_at_@AM_DEFAULT_V@)
am__v_at_0 = @
am__v_at_1 = 
DEFAULT_INCLUDES = -I.@am__isrc@ -I$(top_builddir)
depcomp = $(SHELL) $(top_srcdir)/build-aux/depcomp
am__depfiles_maybe = depfiles
am__mv = mv -f
COMPILE = $(CC) $(DEFS) $(DEFAULT_INCLUDES) $(INCLUDES) $(AM_CPPFLAGS) \
	$(CPPFLAGS) $(AM_CFLAGS) $(CFLAGS)
LTCOMPILE = $(LIBTOOL) $(AM_V_lt) --tag=CC $(AM_LIBTOOLFLAGS) \
	$(LIBTOOLFLAGS) --mode=compile $(CC) $(DEFS) \
	$(DEFAULT_INCLUDES) $(INCLUDES) $(AM_CPPFLAGS) $(CPPFLAGS) \
	$(AM_CFLAGS) $(CFLAGS)
AM_V_CC = $(am__v_CC_@AM_V@)
am__v_CC_ = $(am__v_CC_@AM_DEFAULT_V@)
am__v_CC_0 = @echo "  CC      " $@;
am__v_CC_1 = 
CCLD = $(CC)
LINK = $(LIBTOOL) $(AM_V_lt) --tag=CC $(AM_LIBTOOLFLAGS) \
	$(LIBTOOLFLAGS) --mode=link $(CCLD) $(AM_CFLAGS) $(CFLAGS) \
	$(AM_LDFLAGS) $(LDFLAGS) -o $@
AM_V_CCLD = $(am__v_CCLD_@AM_V@)
am__v_CCLD_ = $(am__v_CCLD_@AM_DEFAULT_V@)
am__v_CCLD_0 = @echo "  CCLD    " $@;
am__v_CCLD_1 = 
CXXCOMPILE = $(CXX) $(DEFS) $(DEFAULT_INCLUDES) $(INCLUDES) \
	$(AM_CPPFLAGS) $(CPPFLAGS) $(AM_CXXFLAGS) $(CXXFLAGS)
LTCXXCOMPILE = $(LIBTOOL) $(AM_V_lt) --tag=CXX $(AM_LIBTOOLFLAGS) \
	$(LIBTOOLFLAGS) --mode=compile $(CXX) $(DEFS) \
	$(DEFAULT_INCLUDES) $(INCLUDES) $(AM_CPPFLAGS) $(CPPFLAGS) \
	$(AM_CXXFLAGS) $(CXXFLAGS)
AM_V_CXX = $(am__v_CXX_@AM_V@)
am__v_CXX_ = $(am__v_CXX_@AM_DEFAULT_V@)
am__v_CXX_0 = @echo "  CXX     " $@;
am__v_CXX_1 = 
CXXLD = $(CXX)
CXXLINK = $(LIBTOOL) $(AM_V_lt) --tag=CXX $(AM_LIBTOOLFLAGS) \
	$(LIBTOOLFLAGS) --mode=link $(CXXLD) $(AM_CXXFLAGS) \
	$(CXXFLAGS) $(AM_LDFLAGS) $(LDFLAGS) -o $@
AM_V_CXXLD = $(am__v_CXXLD_@AM_V@)
am__v_CXXLD_ = $(am__v_CXXLD_@AM_DEFAULT_V@)
am__v_CXXLD_0 = @echo "  CXXLD   " $@;
am__v_CXXLD_1 = 
FCCOMPILE = $(FC) $(AM_FCFLAGS) $(FCFLAGS)
LTFCCOMPILE = $(LIBTOOL) $(AM_V_lt) --tag=FC $(AM_LIBTOOLFLAGS) \
	$(LIBTOOLFLAGS) --mode=compile $(FC) $(AM_FCFLAGS) $(FCFLAGS)
AM_V_FC = $(am__v_FC_@AM_V@)
am__v_FC_ = $(am__v_FC_@AM_DEFAULT_V@)
am__v_FC_0 = @echo "  FC      " $@;
am__v_FC_1 = 
FCLD = $(FC)
FCLINK = $(LIBTOOL) $(AM_V_lt) --tag=FC $(AM_LIBTOOLFLAGS) \
	$(LIBTOOLFLAGS) --mode=link $(FCLD) $(AM_FCFLAGS) $(FCFLAGS) \
	$(AM_LDFLAGS) $(LDFLAGS) -o $@
AM_V_FCLD = $(am__v_FCLD_@AM_V@)
am__v_FCLD_ = $(am__v_FCLD_@AM_DEFAULT_V@)
am__v_FCLD_0 = @echo "  FCLD    " $@;
am__v_FCLD_1 = 
SOURCES = $(cs_eos_la_SOURCES) $(libcs_paramedmem_la_SOURCES) \
	$(libcsbase_la_SOURCES) $(libcscore_la_SOURCES) \
	$(libcscorep_la_SOURCES) $(libcsrenumber_la_SOURCES)
DIST_SOURCES = $(am__cs_eos_la_SOURCES_DIST) \
	$(am__libcs_paramedmem_la_SOURCES_DIST) \
	$(libcsbase_la_SOURCES) $(libcscore_la_SOURCES) \
	$(libcscorep_la_SOURCES) $(libcsrenumber_la_SOURCES)
am__can_run_installinfo = \
  case $$AM_UPDATE_INFO_DIR in \
    n|no|NO) false;; \
    *) (install-info --version) >/dev/null 2>&1;; \
  esac
am__pkginclude_HEADERS_DIST = cs_ale.h cs_all_to_all.h \
	cs_array_reduce.h cs_ast_coupling.h cs_base.h \
	cs_base_fortran.h cs_block_dist.h cs_block_to_part.h \
	cs_boundary_conditions.h cs_calcium.h cs_control.h \
	cs_coupling.h cs_defs.h cs_ext_neighborhood.h cs_fan.h \
	cs_file.h cs_field.h cs_field_pointer.h cs_field_operator.h \
	cs_fp_exception.h cs_halo.h cs_halo_perio.h cs_interface.h \
	cs_io.h cs_log.h cs_log_iteration.h cs_log_setup.h cs_map.h \
	cs_math.h cs_measures_util.h cs_numbering.h cs_opts.h \
	cs_order.h cs_parameters.h cs_parall.h cs_part_to_block.h \
	cs_physical_constants.h cs_physical_properties.h cs_post.h \
	cs_post_default.h cs_preprocess.h cs_preprocessor_data.h \
	cs_prototypes.h cs_renumber.h cs_resource.h cs_restart.h \
	cs_restart_default.h cs_rotation.h cs_sat_coupling.h \
	cs_search.h cs_selector.h cs_sort.h cs_stokes_model.h \
	cs_syr4_coupling.h cs_syr_coupling.h cs_system_info.h \
	cs_thermal_model.h cs_time_moment.h cs_time_plot.h \
	cs_time_step.h cs_timer.h cs_tpar1d.h cs_turbomachinery.h \
	cs_wall_functions.h cs_paramedmem_coupling.hxx cs_eos.hxx
HEADERS = $(pkginclude_HEADERS)
am__tagged_files = $(HEADERS) $(SOURCES) $(TAGS_FILES) $(LISP)
# Read a list of newline-separated strings from the standard input,
# and print each of them once, without duplicates.  Input order is
# *not* preserved.
am__uniquify_input = $(AWK) '\
  BEGIN { nonempty = 0; } \
  { items[$$0] = 1; nonempty = 1; } \
  END { if (nonempty) { for (i in items) print i; }; } \
'
# Make sure the list of sources is unique.  This is necessary because,
# e.g., the same source file might be shared among _SOURCES variables
# for different programs/libraries.
am__define_uniq_tagged_files = \
  list='$(am__tagged_files)'; \
  unique=`for i in $$list; do \
    if test -f "$$i"; then echo $$i; else echo $(srcdir)/$$i; fi; \
  done | $(am__uniquify_input)`
ETAGS = etags
CTAGS = ctags
DISTFILES = $(DIST_COMMON) $(DIST_SOURCES) $(TEXINFOS) $(EXTRA_DIST)
ACLOCAL = @ACLOCAL@
AMTAR = @AMTAR@
AM_DEFAULT_VERBOSITY = @AM_DEFAULT_VERBOSITY@
AR = @AR@
AS = @AS@
AUTOCONF = @AUTOCONF@
AUTOHEADER = @AUTOHEADER@
AUTOMAKE = @AUTOMAKE@
AWK = @AWK@
BIBTEX = @BIBTEX@
BLASRUNPATH = @BLASRUNPATH@
BLAS_CPPFLAGS = @BLAS_CPPFLAGS@
BLAS_LDFLAGS = @BLAS_LDFLAGS@
BLAS_LIBS = @BLAS_LIBS@
CALCIUM_LIBS = @CALCIUM_LIBS@
CATALYSTRUNPATH = @CATALYSTRUNPATH@
CATALYST_CPPFLAGS = @CATALYST_CPPFLAGS@
CATALYST_CXXFLAGS = @CATALYST_CXXFLAGS@
CATALYST_LDFLAGS = @CATALYST_LDFLAGS@
CATALYST_LIBS = @CATALYST_LIBS@
CC = @CC@
CCDEPMODE = @CCDEPMODE@
CCMRUNPATH = @CCMRUNPATH@
CCM_CPPFLAGS = @CCM_CPPFLAGS@
CCM_LDFLAGS = @CCM_LDFLAGS@
CCM_LIBS = @CCM_LIBS@
CFLAGS = @CFLAGS@
CFLAGS_DBG = @CFLAGS_DBG@
CFLAGS_HOT = @CFLAGS_HOT@
CFLAGS_OPT = @CFLAGS_OPT@
CGNSRUNPATH = @CGNSRUNPATH@
CGNS_CPPFLAGS = @CGNS_CPPFLAGS@
CGNS_LDFLAGS = @CGNS_LDFLAGS@
CGNS_LIBS = @CGNS_LIBS@
CMAKE = @CMAKE@
CORBA_CXXFLAGS = @CORBA_CXXFLAGS@
CORBA_INCLUDES = @CORBA_INCLUDES@
CORBA_LIBS = @CORBA_LIBS@
CORBA_ROOT = @CORBA_ROOT@
CPP = @CPP@
CPPFLAGS = @CPPFLAGS@
CS_LD = @CS_LD@
CXX = @CXX@
CXXCPP = @CXXCPP@
CXXDEPMODE = @CXXDEPMODE@
CXXFLAGS = @CXXFLAGS@
CXXFLAGS_DBG = @CXXFLAGS_DBG@
CXXFLAGS_HOT = @CXXFLAGS_HOT@
CXXFLAGS_OPT = @CXXFLAGS_OPT@
CYGPATH_W = @CYGPATH_W@
DEFS = @DEFS@
DEPDIR = @DEPDIR@
DLLTOOL = @DLLTOOL@
DOT = @DOT@
DOXYGEN = @DOXYGEN@
DSYMUTIL = @DSYMUTIL@
DUMPBIN = @DUMPBIN@
ECHO_C = @ECHO_C@
ECHO_N = @ECHO_N@
ECHO_T = @ECHO_T@
EGREP = @EGREP@
EOSRUNPATH = @EOSRUNPATH@
EOS_CPPFLAGS = @EOS_CPPFLAGS@
EOS_LDFLAGS = @EOS_LDFLAGS@
EOS_LIBS = @EOS_LIBS@
EXEEXT = @EXEEXT@
FC = @FC@
FCFLAGS = @FCFLAGS@
FCFLAGS_DBG = @FCFLAGS_DBG@
FCFLAGS_HOT = @FCFLAGS_HOT@
FCFLAGS_OPT = @FCFLAGS_OPT@
FCLIBS = @FCLIBS@
FCMODEXT = @FCMODEXT@
FCMODINCLUDE = @FCMODINCLUDE@
FGREP = @FGREP@
FIG2DEV = @FIG2DEV@
FREESTEAMRUNPATH = @FREESTEAMRUNPATH@
FREESTEAM_CPPFLAGS = @FREESTEAM_CPPFLAGS@
FREESTEAM_LDFLAGS = @FREESTEAM_LDFLAGS@
FREESTEAM_LIBS = @FREESTEAM_LIBS@
GETTEXT_MACRO_VERSION = @GETTEXT_MACRO_VERSION@
GMSGFMT = @GMSGFMT@
GMSGFMT_015 = @GMSGFMT_015@
GREP = @GREP@
HDF5RUNPATH = @HDF5RUNPATH@
HDF5_CPPFLAGS = @HDF5_CPPFLAGS@
HDF5_CPPFLAGS_MPI = @HDF5_CPPFLAGS_MPI@
HDF5_LDFLAGS = @HDF5_LDFLAGS@
HDF5_LDFLAGS_MPI = @HDF5_LDFLAGS_MPI@
HDF5_LIBS = @HDF5_LIBS@
HDF5_LIBS_MPI = @HDF5_LIBS_MPI@
IDL = @IDL@
IDLCXXFLAGS = @IDLCXXFLAGS@
IDLPYFLAGS = @IDLPYFLAGS@
IDL_CLN_CXX = @IDL_CLN_CXX@
IDL_CLN_H = @IDL_CLN_H@
IDL_CLN_OBJ = @IDL_CLN_OBJ@
IDL_SRV_CXX = @IDL_SRV_CXX@
IDL_SRV_H = @IDL_SRV_H@
IDL_SRV_OBJ = @IDL_SRV_OBJ@
INSTALL = @INSTALL@
INSTALL_DATA = @INSTALL_DATA@
INSTALL_PROGRAM = @INSTALL_PROGRAM@
INSTALL_SCRIPT = @INSTALL_SCRIPT@
INSTALL_STRIP_PROGRAM = @INSTALL_STRIP_PROGRAM@
INTLLIBS = @INTLLIBS@
INTL_MACOSX_LIBS = @INTL_MACOSX_LIBS@
LD = @LD@
LDFLAGS = @LDFLAGS@
LDRPATH = @LDRPATH@
LEX = @LEX@
LEXLIB = @LEXLIB@
LEX_OUTPUT_ROOT = @LEX_OUTPUT_ROOT@
LIBICONV = @LIBICONV@
LIBINTL = @LIBINTL@
LIBOBJS = @LIBOBJS@
LIBS = @LIBS@
LIBTOOL = @LIBTOOL@
LIBXML2_CPPFLAGS = @LIBXML2_CPPFLAGS@
LIBXML2_LDFLAGS = @LIBXML2_LDFLAGS@
LIBXML2_LIBS = @LIBXML2_LIBS@
LIPO = @LIPO@
LN_S = @LN_S@
LRELEASE = @LRELEASE@
LTLIBICONV = @LTLIBICONV@
LTLIBINTL = @LTLIBINTL@
LTLIBOBJS = @LTLIBOBJS@
MAINT = @MAINT@
MAKEINDEX = @MAKEINDEX@
MAKEINFO = @MAKEINFO@
MANIFEST_TOOL = @MANIFEST_TOOL@
MEDCOUPLINGRUNPATH = @MEDCOUPLINGRUNPATH@
MEDCOUPLING_CPPFLAGS = @MEDCOUPLING_CPPFLAGS@
MEDCOUPLING_LDFLAGS = @MEDCOUPLING_LDFLAGS@
MEDCOUPLING_LIBS = @MEDCOUPLING_LIBS@
MEDRUNPATH = @MEDRUNPATH@
MED_CPPFLAGS = @MED_CPPFLAGS@
MED_LDFLAGS = @MED_LDFLAGS@
MED_LIBS = @MED_LIBS@
METISRUNPATH = @METISRUNPATH@
METIS_CPPFLAGS = @METIS_CPPFLAGS@
METIS_LDFLAGS = @METIS_LDFLAGS@
METIS_LIBS = @METIS_LIBS@
MKDIR_P = @MKDIR_P@
MOC = @MOC@
MODULECMD = @MODULECMD@
MPI_CPPFLAGS = @MPI_CPPFLAGS@
MPI_LDFLAGS = @MPI_LDFLAGS@
MPI_LIBS = @MPI_LIBS@
MSGFMT = @MSGFMT@
MSGFMT_015 = @MSGFMT_015@
MSGMERGE = @MSGMERGE@
NM = @NM@
NMEDIT = @NMEDIT@
OBJDUMP = @OBJDUMP@
OBJEXT = @OBJEXT@
OMNIIDL = @OMNIIDL@
OMNIIDLLDLIBPATH = @OMNIIDLLDLIBPATH@
OMNIIDLPYBE = @OMNIIDLPYBE@
OMNIIDLPYTHONPATH = @OMNIIDLPYTHONPATH@
OMNIORB_CXXFLAGS = @OMNIORB_CXXFLAGS@
OMNIORB_IDLCXXFLAGS = @OMNIORB_IDLCXXFLAGS@
OMNIORB_IDLPYFLAGS = @OMNIORB_IDLPYFLAGS@
OMNIORB_IDL_CLN_CXX = @OMNIORB_IDL_CLN_CXX@
OMNIORB_IDL_CLN_H = @OMNIORB_IDL_CLN_H@
OMNIORB_IDL_CLN_OBJ = @OMNIORB_IDL_CLN_OBJ@
OMNIORB_IDL_SRV_CXX = @OMNIORB_IDL_SRV_CXX@
OMNIORB_IDL_SRV_H = @OMNIORB_IDL_SRV_H@
OMNIORB_IDL_SRV_OBJ = @OMNIORB_IDL_SRV_OBJ@
OMNIORB_IDL_TIE_CXX = @OMNIORB_IDL_TIE_CXX@
OMNIORB_IDL_TIE_H = @OMNIORB_IDL_TIE_H@
OMNIORB_INCLUDES = @OMNIORB_INCLUDES@
OMNIORB_LIBS = @OMNIORB_LIBS@
OMNIORB_ROOT = @OMNIORB_ROOT@
OTOOL = @OTOOL@
OTOOL64 = @OTOOL64@
PACKAGE = @PACKAGE@
PACKAGE_BUGREPORT = @PACKAGE_BUGREPORT@
PACKAGE_NAME = @PACKAGE_NAME@
PACKAGE_STRING = @PACKAGE_STRING@
PACKAGE_TARNAME = @PACKAGE_TARNAME@
PACKAGE_URL = @PACKAGE_URL@
PACKAGE_VERSION = @PACKAGE_VERSION@
PARAMEDMEM_CPPFLAGS = @PARAMEDMEM_CPPFLAGS@
PARAMEDMEM_LDFLAGS = @PARAMEDMEM_LDFLAGS@
PARAMEDMEM_LIBS = @PARAMEDMEM_LIBS@
PATH_SEPARATOR = @PATH_SEPARATOR@
PDFLATEX = @PDFLATEX@
PLE_CPPFLAGS = @PLE_CPPFLAGS@
PLE_LDFLAGS = @PLE_LDFLAGS@
PLE_LIBS = @PLE_LIBS@
POSUB = @POSUB@
POW_LIB = @POW_LIB@
PTHREAD_CC = @PTHREAD_CC@
PTHREAD_CFLAGS = @PTHREAD_CFLAGS@
PTHREAD_LIBS = @PTHREAD_LIBS@
PYRCC4 = @PYRCC4@
PYTHON = @PYTHON@
PYTHON_EXEC_PREFIX = @PYTHON_EXEC_PREFIX@
PYTHON_PLATFORM = @PYTHON_PLATFORM@
PYTHON_PREFIX = @PYTHON_PREFIX@
PYTHON_VERSION = @PYTHON_VERSION@
PYUIC4 = @PYUIC4@
RANLIB = @RANLIB@
SALOMEENVCMD = @SALOMEENVCMD@
SALOMEPRE = @SALOMEPRE@
SALOMERUN = @SALOMERUN@
SALOME_GUI = @SALOME_GUI@
SALOME_GUI_CPPFLAGS = @SALOME_GUI_CPPFLAGS@
SALOME_GUI_IDL = @SALOME_GUI_IDL@
SALOME_GUI_LDFLAGS = @SALOME_GUI_LDFLAGS@
SALOME_GUI_LIBS = @SALOME_GUI_LIBS@
SALOME_KERNEL = @SALOME_KERNEL@
SALOME_KERNEL_CPPFLAGS = @SALOME_KERNEL_CPPFLAGS@
SALOME_KERNEL_IDL = @SALOME_KERNEL_IDL@
SALOME_KERNEL_LDFLAGS = @SALOME_KERNEL_LDFLAGS@
SALOME_KERNEL_LIBS = @SALOME_KERNEL_LIBS@
SALOME_YACS = @SALOME_YACS@
SALOME_YACS_CPPFLAGS = @SALOME_YACS_CPPFLAGS@
SALOME_YACS_IDL = @SALOME_YACS_IDL@
SALOME_YACS_LDFLAGS = @SALOME_YACS_LDFLAGS@
SALOME_YACS_LIBS = @SALOME_YACS_LIBS@
SCOTCHRUNPATH = @SCOTCHRUNPATH@
SCOTCH_CPPFLAGS = @SCOTCH_CPPFLAGS@
SCOTCH_LDFLAGS = @SCOTCH_LDFLAGS@
SCOTCH_LIBS = @SCOTCH_LIBS@
SED = @SED@
SET_MAKE = @SET_MAKE@
SHELL = @SHELL@
SPHINXBUILD = @SPHINXBUILD@
STRIP = @STRIP@
USE_NLS = @USE_NLS@
VERSION = @VERSION@
XGETTEXT = @XGETTEXT@
XGETTEXT_015 = @XGETTEXT_015@
XGETTEXT_EXTRA_OPTIONS = @XGETTEXT_EXTRA_OPTIONS@
YACC = @YACC@
YFLAGS = @YFLAGS@
abs_builddir = @abs_builddir@
abs_srcdir = @abs_srcdir@
abs_top_builddir = @abs_top_builddir@
abs_top_srcdir = @abs_top_srcdir@
ac_ct_AR = @ac_ct_AR@
ac_ct_CC = @ac_ct_CC@
ac_ct_CXX = @ac_ct_CXX@
ac_ct_DUMPBIN = @ac_ct_DUMPBIN@
ac_ct_FC = @ac_ct_FC@
acx_pthread_config = @acx_pthread_config@
am__include = @am__include@
am__leading_dot = @am__leading_dot@
am__quote = @am__quote@
am__tar = @am__tar@
am__untar = @am__untar@
bindir = @bindir@
build = @build@
build_alias = @build_alias@
build_cpu = @build_cpu@
build_os = @build_os@
build_vendor = @build_vendor@
builddir = @builddir@
ccversion = @ccversion@
cgns_prefix = @cgns_prefix@
cs_env_modules = @cs_env_modules@
cs_have_blas = @cs_have_blas@
cs_have_calcium = @cs_have_calcium@
cs_have_catalyst = @cs_have_catalyst@
cs_have_ccm = @cs_have_ccm@
cs_have_cgns = @cs_have_cgns@
cs_have_doxygen = @cs_have_doxygen@
cs_have_eos = @cs_have_eos@
cs_have_freesteam = @cs_have_freesteam@
cs_have_frontend = @cs_have_frontend@
cs_have_gui = @cs_have_gui@
cs_have_hdf5 = @cs_have_hdf5@
cs_have_latex = @cs_have_latex@
cs_have_libxml2 = @cs_have_libxml2@
cs_have_long_gnum = @cs_have_long_gnum@
cs_have_med = @cs_have_med@
cs_have_medcoupling = @cs_have_medcoupling@
cs_have_metis = @cs_have_metis@
cs_have_mpi = @cs_have_mpi@
cs_have_openmp = @cs_have_openmp@
cs_have_paramedmem = @cs_have_paramedmem@
cs_have_salome_gui = @cs_have_salome_gui@
cs_have_salome_kernel = @cs_have_salome_kernel@
cs_have_salome_yacs = @cs_have_salome_yacs@
cs_have_scotch = @cs_have_scotch@
cs_have_sphinx = @cs_have_sphinx@
cs_py_have_plugins = @cs_py_have_plugins@
cs_special_user_link = @cs_special_user_link@
cs_src_revision = @cs_src_revision@
cs_tex_path_end = @cs_tex_path_end@
cs_tex_path_sep = @cs_tex_path_sep@
cs_version = @cs_version@
cs_version_full = @cs_version_full@
cs_version_short = @cs_version_short@
datadir = @datadir@
datarootdir = @datarootdir@
debug = @debug@
docdir = @docdir@
dvidir = @dvidir@
enable_shared = @enable_shared@
eos_prefix = @eos_prefix@
exec_prefix = @exec_prefix@
freesteam_prefix = @freesteam_prefix@
hdf5_prefix = @hdf5_prefix@
host = @host@
host_alias = @host_alias@
host_cpu = @host_cpu@
host_os = @host_os@
host_vendor = @host_vendor@
htmldir = @htmldir@
includedir = @includedir@
infodir = @infodir@
install_sh = @install_sh@
libdir = @libdir@
libexecdir = @libexecdir@
libxml2_prefix = @libxml2_prefix@
localedir = @localedir@
localstatedir = @localstatedir@
mandir = @mandir@
med_prefix = @med_prefix@
metis_prefix = @metis_prefix@
mkdir_p = @mkdir_p@
mpi_bindir = @mpi_bindir@
mpi_libdir = @mpi_libdir@
mpi_prefix = @mpi_prefix@
mpi_type = @mpi_type@
oldincludedir = @oldincludedir@
pdfdir = @pdfdir@
pkgpyexecdir = @pkgpyexecdir@
pkgpythondir = @pkgpythondir@
ple_type = @ple_type@
prefix = @prefix@
profile = @profile@
program_transform_name = @program_transform_name@
psdir = @psdir@
pyexecdir = @pyexecdir@
pythondir = @pythondir@
pythonversion = @pythonversion@
relocatable = @relocatable@
sbindir = @sbindir@
scotch_prefix = @scotch_prefix@
sharedstatedir = @sharedstatedir@
srcdir = @srcdir@
subdirs = @subdirs@
sysconfdir = @sysconfdir@
target = @target@
target_alias = @target_alias@
target_cpu = @target_cpu@
target_os = @target_os@
target_vendor = @target_vendor@
top_build_prefix = @top_build_prefix@
top_builddir = @top_builddir@
top_srcdir = @top_srcdir@
win_prefix = @win_prefix@
@HAVE_INTERNAL_PLE_FALSE@CPPFLAGS_PLE = $(PLE_CPPFLAGS)
@HAVE_INTERNAL_PLE_TRUE@CPPFLAGS_PLE = -I$(top_srcdir)/libple/src -I$(top_builddir)/libple

# Main part
AM_CPPFLAGS = \
-I$(top_srcdir)/src/alge \
-I$(top_srcdir)/src/ctwr \
-I$(top_srcdir)/src/lagr \
-I$(top_srcdir)/src/mesh \
-I$(top_srcdir)/src/bft \
-I$(top_srcdir)/src/fvm \
-I$(top_srcdir)/src/mei \
-I$(top_srcdir)/src/gui \
-I$(top_srcdir)/src/turb \
$(CPPFLAGS_PLE) \
$(FREESTEAM_CPPFLAGS) \
$(MPI_CPPFLAGS)

AM_CFLAGS = $(CFLAGS_DBG) $(CFLAGS_OPT)
AM_FCFLAGS = \
$(FCMODINCLUDE)$(top_builddir)/src \
$(FCMODINCLUDE)$(top_builddir)/src/alge \
$(FCMODINCLUDE)$(top_builddir)/src/atmo \
$(FCMODINCLUDE)$(top_builddir)/src/cfbl \
$(FCMODINCLUDE)$(top_builddir)/src/cogz \
$(FCMODINCLUDE)$(top_builddir)/src/comb \
$(FCMODINCLUDE)$(top_builddir)/src/ctwr \
$(FCMODINCLUDE)$(top_builddir)/src/darc \
$(FCMODINCLUDE)$(top_builddir)/src/elec \
$(FCMODINCLUDE)$(top_builddir)/src/lagr \
$(FCMODINCLUDE)$(top_builddir)/src/pprt \
$(FCMODINCLUDE)$(top_builddir)/src/rayt \
$(FCMODINCLUDE)$(top_builddir)/src/turb \
$(FCMODINCLUDE)$(top_builddir)/src/user \
$(FCFLAGS_DBG) $(FCFLAGS_OPT)

AM_LDFLAGS = 

# Public header files (to be installed)
pkginclude_HEADERS = cs_ale.h cs_all_to_all.h cs_array_reduce.h \
	cs_ast_coupling.h cs_base.h cs_base_fortran.h cs_block_dist.h \
	cs_block_to_part.h cs_boundary_conditions.h cs_calcium.h \
	cs_control.h cs_coupling.h cs_defs.h cs_ext_neighborhood.h \
	cs_fan.h cs_file.h cs_field.h cs_field_pointer.h \
	cs_field_operator.h cs_fp_exception.h cs_halo.h \
	cs_halo_perio.h cs_interface.h cs_io.h cs_log.h \
	cs_log_iteration.h cs_log_setup.h cs_map.h cs_math.h \
	cs_measures_util.h cs_numbering.h cs_opts.h cs_order.h \
	cs_parameters.h cs_parall.h cs_part_to_block.h \
	cs_physical_constants.h cs_physical_properties.h cs_post.h \
	cs_post_default.h cs_preprocess.h cs_preprocessor_data.h \
	cs_prototypes.h cs_renumber.h cs_resource.h cs_restart.h \
	cs_restart_default.h cs_rotation.h cs_sat_coupling.h \
	cs_search.h cs_selector.h cs_sort.h cs_stokes_model.h \
	cs_syr4_coupling.h cs_syr_coupling.h cs_system_info.h \
	cs_thermal_model.h cs_time_moment.h cs_time_plot.h \
	cs_time_step.h cs_timer.h cs_tpar1d.h cs_turbomachinery.h \
	cs_wall_functions.h $(am__append_1) $(am__append_3)

# Library source files
noinst_LTLIBRARIES = libcscorep.la libcscore.la \
                     libcsbase.la libcsrenumber.la


# Core library.
# We use a helper library containing only cs_base.c, so as to pass
# it localedir and pkgdatadir info.
libcscorep_la_CPPFLAGS = \
-DLOCALEDIR=\"$(localedir)\" \
-DPKGDATADIR=\"$(pkgdatadir)\" \
-DPKGLIBDIR=\"$(pkglibdir)\" \
$(AM_CPPFLAGS)

libcscorep_la_SOURCES = cs_base.c
libcscorep_la_LDFLAGS = -no-undefined
libcscore_la_SOURCES = \
cs_all_to_all.c \
cs_block_dist.c \
cs_block_to_part.c \
cs_defs.c \
cs_file.c \
cs_fp_exception.c \
cs_interface.c \
cs_io.c \
cs_log.c \
cs_math.c \
cs_map.c \
cs_order.c \
cs_part_to_block.c \
cs_system_info.c \
cs_timer.c

libcscore_la_LDFLAGS = -no-undefined
libcscore_la_LIBADD = libcscorep.la $(top_builddir)/src/fvm/libfvm.la

###
libcsbase_la_SOURCES = \
addfld.f90 \
alelav.f90 \
alemav.f90 \
altycl.f90 \
calhyd.f90 \
caltri.f90 \
catsma.f90 \
catsmv.f90 \
clca66.f90 \
clpsca.f90 \
clptrg.f90 \
clptur.f90 \
clsyvt.f90 \
copain_model.f90 \
condensation_source_terms.f90 \
condli.f90 \
cou1di.f90 \
cou1do.f90 \
coupbi.f90 \
coupbo.f90 \
codits.f90 \
coditv.f90 \
covofi.f90 \
cptssy.f90 \
cpvosy.f90 \
cregeo.f90 \
cs_ale.c \
cs_array_reduce.c \
cs_ast_coupling.c \
cs_base_fortran.c \
cs_boundary_conditions.c \
cs_calcium.c \
csc2cl.f90 \
csc2ts.f90 \
csccel.f90 \
cscfbr.f90 \
cscini.f90 \
csclli.f90 \
cscloc.f90 \
cscpce.f90 \
cscpfb.f90 \
cs_control.c \
cs_coupling.c \
cs_ext_neighborhood.c \
cs_fan.c \
cs_field.c \
cs_field_pointer.c \
cs_field_operator.c \
cs_halo.c \
cs_halo_perio.c \
csinit.f90 \
cs_log_iteration.c \
cs_log_setup.c \
cs_numbering.c \
cs_measures_util.c \
cs_mesh_tagmr.f90 \
cs_metal_structures_tag.f90 \
cs_gas_mix_initialization.f90 \
cs_gas_mix_physical_properties.f90 \
csopli.f90 \
cs_opts.c \
cs_parall.c \
cs_parameters.c \
cs_physical_constants.c \
cs_physical_properties.c \
cs_post.c \
cs_post_default.c \
cs_preprocess.c \
cs_preprocessor_data.c \
cs_resource.c \
cs_restart.c \
cs_restart_default.c \
cs_rotation.c \
cs_sat_coupling.c \
cs_search.c \
cs_selector.c \
cs_selector_f2c.f90 \
cs_sort.c \
cs_stokes_model.c \
cs_syr4_coupling.c \
cs_syr_coupling.c \
cs_thermal_model.c \
cs_tagmri.f90 \
cs_tagmro.f90 \
cs_time_moment.c \
cs_time_plot.c \
cs_time_step.c \
cs_tpar1d.c \
cs_turbomachinery.c \
cs_wall_functions.c \
csprnt.f90 \
diffst.f90 \
distpr.f90 \
distyp.f90 \
driflu.f90 \
dttvar.f90 \
dvvpst.f90 \
ecrava.f90 \
ecrhis.f90 \
ecrlis.f90 \
findpt.f90 \
fldini.f90 \
fldtri.f90 \
fldvar.f90 \
fldprp.f90 \
haltyp.f90 \
idrbla.f90 \
impini.f90 \
iniini.f90 \
initi1.f90 \
initi2.f90 \
iniusi.f90 \
iniva0.f90 \
inivar.f90 \
iprbla.f90 \
lecamo.f90 \
lecamp.f90 \
lecamx.f90 \
majgeo.f90 \
memfin.f90 \
metal_structures_copain_model.f90 \
modini.f90 \
mmtycl.f90 \
navstv.f90 \
newmrk.f90 \
phyvar.f90 \
post_util.f90 \
precli.f90 \
predfl.f90 \
predvv.f90 \
prehyd.f90 \
prmoy0.f90 \
pthrbm.f90 \
resopv.f90 \
resvoi.f90 \
scalai.f90 \
schtmp.f90 \
stdtcl.f90 \
strdep.f90 \
strhis.f90 \
strini.f90 \
strpre.f90 \
tdesi1.f90 \
tridim.f90 \
tspdcv.f90 \
typecl.f90 \
undscr.f90 \
varpos.f90 \
vericl.f90 \
verini.f90 \
verlon.f90 \
vert1d.f90 \
visecv.f90 \
zufall.f90


# Renumbering (may require extra headers)
libcsrenumber_la_CPPFLAGS = $(AM_CPPFLAGS) \
$(METIS_CPPFLAGS) $(SCOTCH_CPPFLAGS)

libcsrenumber_la_SOURCES = cs_renumber.c
libcsrenumber_la_LDFLAGS = -no-undefined

# Conditionally compiled extensions
lib_LTLIBRARIES = $(am__append_2)
pkglib_LTLIBRARIES = $(am__append_4)
@HAVE_PARAMEDMEM_TRUE@libcs_paramedmem_la_CPPFLAGS = \
@HAVE_PARAMEDMEM_TRUE@-I$(top_srcdir)/src/fvm \
@HAVE_PARAMEDMEM_TRUE@-I$(top_srcdir)/src/mesh \
@HAVE_PARAMEDMEM_TRUE@-I$(top_srcdir)/src/bft \
@HAVE_PARAMEDMEM_TRUE@$(MEDCOUPLING_CPPFLAGS) $(MPI_CPPFLAGS)

@HAVE_PARAMEDMEM_TRUE@libcs_paramedmem_la_SOURCES = cs_paramedmem_coupling.cxx
@HAVE_EOS_TRUE@cs_eos_la_CPPFLAGS = \
@HAVE_EOS_TRUE@-I$(top_srcdir)/src/fvm \
@HAVE_EOS_TRUE@-I$(top_srcdir)/src/mesh \
@HAVE_EOS_TRUE@-I$(top_srcdir)/src/bft \
@HAVE_EOS_TRUE@$(EOS_CPPFLAGS) $(MPI_CPPFLAGS)

@HAVE_EOS_TRUE@cs_eos_la_SOURCES = cs_eos.cxx
@HAVE_EOS_TRUE@cs_eos_la_LDFLAGS = -module -avoid-version
all: all-am

.SUFFIXES:
.SUFFIXES: .c .cxx .f90 .lo .o .obj
$(srcdir)/Makefile.in: @MAINTAINER_MODE_TRUE@ $(srcdir)/Makefile.am  $(am__configure_deps)
	@for dep in $?; do \
	  case '$(am__configure_deps)' in \
	    *$$dep*) \
	      ( cd $(top_builddir) && $(MAKE) $(AM_MAKEFLAGS) am--refresh ) \
	        && { if test -f $@; then exit 0; else break; fi; }; \
	      exit 1;; \
	  esac; \
	done; \
	echo ' cd $(top_srcdir) && $(AUTOMAKE) --foreign src/base/Makefile'; \
	$(am__cd) $(top_srcdir) && \
	  $(AUTOMAKE) --foreign src/base/Makefile
.PRECIOUS: Makefile
Makefile: $(srcdir)/Makefile.in $(top_builddir)/config.status
	@case '$?' in \
	  *config.status*) \
	    cd $(top_builddir) && $(MAKE) $(AM_MAKEFLAGS) am--refresh;; \
	  *) \
	    echo ' cd $(top_builddir) && $(SHELL) ./config.status $(subdir)/$@ $(am__depfiles_maybe)'; \
	    cd $(top_builddir) && $(SHELL) ./config.status $(subdir)/$@ $(am__depfiles_maybe);; \
	esac;

$(top_builddir)/config.status: $(top_srcdir)/configure $(CONFIG_STATUS_DEPENDENCIES)
	cd $(top_builddir) && $(MAKE) $(AM_MAKEFLAGS) am--refresh

$(top_srcdir)/configure: @MAINTAINER_MODE_TRUE@ $(am__configure_deps)
	cd $(top_builddir) && $(MAKE) $(AM_MAKEFLAGS) am--refresh
$(ACLOCAL_M4): @MAINTAINER_MODE_TRUE@ $(am__aclocal_m4_deps)
	cd $(top_builddir) && $(MAKE) $(AM_MAKEFLAGS) am--refresh
$(am__aclocal_m4_deps):

install-libLTLIBRARIES: $(lib_LTLIBRARIES)
	@$(NORMAL_INSTALL)
	@list='$(lib_LTLIBRARIES)'; test -n "$(libdir)" || list=; \
	list2=; for p in $$list; do \
	  if test -f $$p; then \
	    list2="$$list2 $$p"; \
	  else :; fi; \
	done; \
	test -z "$$list2" || { \
	  echo " $(MKDIR_P) '$(DESTDIR)$(libdir)'"; \
	  $(MKDIR_P) "$(DESTDIR)$(libdir)" || exit 1; \
	  echo " $(LIBTOOL) $(AM_LIBTOOLFLAGS) $(LIBTOOLFLAGS) --mode=install $(INSTALL) $(INSTALL_STRIP_FLAG) $$list2 '$(DESTDIR)$(libdir)'"; \
	  $(LIBTOOL) $(AM_LIBTOOLFLAGS) $(LIBTOOLFLAGS) --mode=install $(INSTALL) $(INSTALL_STRIP_FLAG) $$list2 "$(DESTDIR)$(libdir)"; \
	}

uninstall-libLTLIBRARIES:
	@$(NORMAL_UNINSTALL)
	@list='$(lib_LTLIBRARIES)'; test -n "$(libdir)" || list=; \
	for p in $$list; do \
	  $(am__strip_dir) \
	  echo " $(LIBTOOL) $(AM_LIBTOOLFLAGS) $(LIBTOOLFLAGS) --mode=uninstall rm -f '$(DESTDIR)$(libdir)/$$f'"; \
	  $(LIBTOOL) $(AM_LIBTOOLFLAGS) $(LIBTOOLFLAGS) --mode=uninstall rm -f "$(DESTDIR)$(libdir)/$$f"; \
	done

clean-libLTLIBRARIES:
	-test -z "$(lib_LTLIBRARIES)" || rm -f $(lib_LTLIBRARIES)
	@list='$(lib_LTLIBRARIES)'; \
	locs=`for p in $$list; do echo $$p; done | \
	      sed 's|^[^/]*$$|.|; s|/[^/]*$$||; s|$$|/so_locations|' | \
	      sort -u`; \
	test -z "$$locs" || { \
	  echo rm -f $${locs}; \
	  rm -f $${locs}; \
	}

clean-noinstLTLIBRARIES:
	-test -z "$(noinst_LTLIBRARIES)" || rm -f $(noinst_LTLIBRARIES)
	@list='$(noinst_LTLIBRARIES)'; \
	locs=`for p in $$list; do echo $$p; done | \
	      sed 's|^[^/]*$$|.|; s|/[^/]*$$||; s|$$|/so_locations|' | \
	      sort -u`; \
	test -z "$$locs" || { \
	  echo rm -f $${locs}; \
	  rm -f $${locs}; \
	}

install-pkglibLTLIBRARIES: $(pkglib_LTLIBRARIES)
	@$(NORMAL_INSTALL)
	@list='$(pkglib_LTLIBRARIES)'; test -n "$(pkglibdir)" || list=; \
	list2=; for p in $$list; do \
	  if test -f $$p; then \
	    list2="$$list2 $$p"; \
	  else :; fi; \
	done; \
	test -z "$$list2" || { \
	  echo " $(MKDIR_P) '$(DESTDIR)$(pkglibdir)'"; \
	  $(MKDIR_P) "$(DESTDIR)$(pkglibdir)" || exit 1; \
	  echo " $(LIBTOOL) $(AM_LIBTOOLFLAGS) $(LIBTOOLFLAGS) --mode=install $(INSTALL) $(INSTALL_STRIP_FLAG) $$list2 '$(DESTDIR)$(pkglibdir)'"; \
	  $(LIBTOOL) $(AM_LIBTOOLFLAGS) $(LIBTOOLFLAGS) --mode=install $(INSTALL) $(INSTALL_STRIP_FLAG) $$list2 "$(DESTDIR)$(pkglibdir)"; \
	}

uninstall-pkglibLTLIBRARIES:
	@$(NORMAL_UNINSTALL)
	@list='$(pkglib_LTLIBRARIES)'; test -n "$(pkglibdir)" || list=; \
	for p in $$list; do \
	  $(am__strip_dir) \
	  echo " $(LIBTOOL) $(AM_LIBTOOLFLAGS) $(LIBTOOLFLAGS) --mode=uninstall rm -f '$(DESTDIR)$(pkglibdir)/$$f'"; \
	  $(LIBTOOL) $(AM_LIBTOOLFLAGS) $(LIBTOOLFLAGS) --mode=uninstall rm -f "$(DESTDIR)$(pkglibdir)/$$f"; \
	done

clean-pkglibLTLIBRARIES:
	-test -z "$(pkglib_LTLIBRARIES)" || rm -f $(pkglib_LTLIBRARIES)
	@list='$(pkglib_LTLIBRARIES)'; \
	locs=`for p in $$list; do echo $$p; done | \
	      sed 's|^[^/]*$$|.|; s|/[^/]*$$||; s|$$|/so_locations|' | \
	      sort -u`; \
	test -z "$$locs" || { \
	  echo rm -f $${locs}; \
	  rm -f $${locs}; \
	}

cs_eos.la: $(cs_eos_la_OBJECTS) $(cs_eos_la_DEPENDENCIES) $(EXTRA_cs_eos_la_DEPENDENCIES) 
	$(AM_V_CXXLD)$(cs_eos_la_LINK) $(am_cs_eos_la_rpath) $(cs_eos_la_OBJECTS) $(cs_eos_la_LIBADD) $(LIBS)

libcs_paramedmem.la: $(libcs_paramedmem_la_OBJECTS) $(libcs_paramedmem_la_DEPENDENCIES) $(EXTRA_libcs_paramedmem_la_DEPENDENCIES) 
	$(AM_V_CXXLD)$(CXXLINK) $(am_libcs_paramedmem_la_rpath) $(libcs_paramedmem_la_OBJECTS) $(libcs_paramedmem_la_LIBADD) $(LIBS)

libcsbase.la: $(libcsbase_la_OBJECTS) $(libcsbase_la_DEPENDENCIES) $(EXTRA_libcsbase_la_DEPENDENCIES) 
	$(AM_V_FCLD)$(FCLINK)  $(libcsbase_la_OBJECTS) $(libcsbase_la_LIBADD) $(LIBS)

libcscore.la: $(libcscore_la_OBJECTS) $(libcscore_la_DEPENDENCIES) $(EXTRA_libcscore_la_DEPENDENCIES) 
	$(AM_V_CCLD)$(libcscore_la_LINK)  $(libcscore_la_OBJECTS) $(libcscore_la_LIBADD) $(LIBS)

libcscorep.la: $(libcscorep_la_OBJECTS) $(libcscorep_la_DEPENDENCIES) $(EXTRA_libcscorep_la_DEPENDENCIES) 
	$(AM_V_CCLD)$(libcscorep_la_LINK)  $(libcscorep_la_OBJECTS) $(libcscorep_la_LIBADD) $(LIBS)

libcsrenumber.la: $(libcsrenumber_la_OBJECTS) $(libcsrenumber_la_DEPENDENCIES) $(EXTRA_libcsrenumber_la_DEPENDENCIES) 
	$(AM_V_CCLD)$(libcsrenumber_la_LINK)  $(libcsrenumber_la_OBJECTS) $(libcsrenumber_la_LIBADD) $(LIBS)

mostlyclean-compile:
	-rm -f *.$(OBJEXT)

distclean-compile:
	-rm -f *.tab.c

@AMDEP_TRUE@@am__include@ @am__quote@./$(DEPDIR)/cs_ale.Plo@am__quote@
@AMDEP_TRUE@@am__include@ @am__quote@./$(DEPDIR)/cs_all_to_all.Plo@am__quote@
@AMDEP_TRUE@@am__include@ @am__quote@./$(DEPDIR)/cs_array_reduce.Plo@am__quote@
@AMDEP_TRUE@@am__include@ @am__quote@./$(DEPDIR)/cs_ast_coupling.Plo@am__quote@
@AMDEP_TRUE@@am__include@ @am__quote@./$(DEPDIR)/cs_base_fortran.Plo@am__quote@
@AMDEP_TRUE@@am__include@ @am__quote@./$(DEPDIR)/cs_block_dist.Plo@am__quote@
@AMDEP_TRUE@@am__include@ @am__quote@./$(DEPDIR)/cs_block_to_part.Plo@am__quote@
@AMDEP_TRUE@@am__include@ @am__quote@./$(DEPDIR)/cs_boundary_conditions.Plo@am__quote@
@AMDEP_TRUE@@am__include@ @am__quote@./$(DEPDIR)/cs_calcium.Plo@am__quote@
@AMDEP_TRUE@@am__include@ @am__quote@./$(DEPDIR)/cs_control.Plo@am__quote@
@AMDEP_TRUE@@am__include@ @am__quote@./$(DEPDIR)/cs_coupling.Plo@am__quote@
@AMDEP_TRUE@@am__include@ @am__quote@./$(DEPDIR)/cs_defs.Plo@am__quote@
@AMDEP_TRUE@@am__include@ @am__quote@./$(DEPDIR)/cs_eos_la-cs_eos.Plo@am__quote@
@AMDEP_TRUE@@am__include@ @am__quote@./$(DEPDIR)/cs_ext_neighborhood.Plo@am__quote@
@AMDEP_TRUE@@am__include@ @am__quote@./$(DEPDIR)/cs_fan.Plo@am__quote@
@AMDEP_TRUE@@am__include@ @am__quote@./$(DEPDIR)/cs_field.Plo@am__quote@
@AMDEP_TRUE@@am__include@ @am__quote@./$(DEPDIR)/cs_field_operator.Plo@am__quote@
@AMDEP_TRUE@@am__include@ @am__quote@./$(DEPDIR)/cs_field_pointer.Plo@am__quote@
@AMDEP_TRUE@@am__include@ @am__quote@./$(DEPDIR)/cs_file.Plo@am__quote@
@AMDEP_TRUE@@am__include@ @am__quote@./$(DEPDIR)/cs_fp_exception.Plo@am__quote@
@AMDEP_TRUE@@am__include@ @am__quote@./$(DEPDIR)/cs_halo.Plo@am__quote@
@AMDEP_TRUE@@am__include@ @am__quote@./$(DEPDIR)/cs_halo_perio.Plo@am__quote@
@AMDEP_TRUE@@am__include@ @am__quote@./$(DEPDIR)/cs_interface.Plo@am__quote@
@AMDEP_TRUE@@am__include@ @am__quote@./$(DEPDIR)/cs_io.Plo@am__quote@
@AMDEP_TRUE@@am__include@ @am__quote@./$(DEPDIR)/cs_log.Plo@am__quote@
@AMDEP_TRUE@@am__include@ @am__quote@./$(DEPDIR)/cs_log_iteration.Plo@am__quote@
@AMDEP_TRUE@@am__include@ @am__quote@./$(DEPDIR)/cs_log_setup.Plo@am__quote@
@AMDEP_TRUE@@am__include@ @am__quote@./$(DEPDIR)/cs_map.Plo@am__quote@
@AMDEP_TRUE@@am__include@ @am__quote@./$(DEPDIR)/cs_math.Plo@am__quote@
@AMDEP_TRUE@@am__include@ @am__quote@./$(DEPDIR)/cs_measures_util.Plo@am__quote@
@AMDEP_TRUE@@am__include@ @am__quote@./$(DEPDIR)/cs_numbering.Plo@am__quote@
@AMDEP_TRUE@@am__include@ @am__quote@./$(DEPDIR)/cs_opts.Plo@am__quote@
@AMDEP_TRUE@@am__include@ @am__quote@./$(DEPDIR)/cs_order.Plo@am__quote@
@AMDEP_TRUE@@am__include@ @am__quote@./$(DEPDIR)/cs_parall.Plo@am__quote@
@AMDEP_TRUE@@am__include@ @am__quote@./$(DEPDIR)/cs_parameters.Plo@am__quote@
@AMDEP_TRUE@@am__include@ @am__quote@./$(DEPDIR)/cs_part_to_block.Plo@am__quote@
@AMDEP_TRUE@@am__include@ @am__quote@./$(DEPDIR)/cs_physical_constants.Plo@am__quote@
@AMDEP_TRUE@@am__include@ @am__quote@./$(DEPDIR)/cs_physical_properties.Plo@am__quote@
@AMDEP_TRUE@@am__include@ @am__quote@./$(DEPDIR)/cs_post.Plo@am__quote@
@AMDEP_TRUE@@am__include@ @am__quote@./$(DEPDIR)/cs_post_default.Plo@am__quote@
@AMDEP_TRUE@@am__include@ @am__quote@./$(DEPDIR)/cs_preprocess.Plo@am__quote@
@AMDEP_TRUE@@am__include@ @am__quote@./$(DEPDIR)/cs_preprocessor_data.Plo@am__quote@
@AMDEP_TRUE@@am__include@ @am__quote@./$(DEPDIR)/cs_resource.Plo@am__quote@
@AMDEP_TRUE@@am__include@ @am__quote@./$(DEPDIR)/cs_restart.Plo@am__quote@
@AMDEP_TRUE@@am__include@ @am__quote@./$(DEPDIR)/cs_restart_default.Plo@am__quote@
@AMDEP_TRUE@@am__include@ @am__quote@./$(DEPDIR)/cs_rotation.Plo@am__quote@
@AMDEP_TRUE@@am__include@ @am__quote@./$(DEPDIR)/cs_sat_coupling.Plo@am__quote@
@AMDEP_TRUE@@am__include@ @am__quote@./$(DEPDIR)/cs_search.Plo@am__quote@
@AMDEP_TRUE@@am__include@ @am__quote@./$(DEPDIR)/cs_selector.Plo@am__quote@
@AMDEP_TRUE@@am__include@ @am__quote@./$(DEPDIR)/cs_sort.Plo@am__quote@
@AMDEP_TRUE@@am__include@ @am__quote@./$(DEPDIR)/cs_stokes_model.Plo@am__quote@
@AMDEP_TRUE@@am__include@ @am__quote@./$(DEPDIR)/cs_syr4_coupling.Plo@am__quote@
@AMDEP_TRUE@@am__include@ @am__quote@./$(DEPDIR)/cs_syr_coupling.Plo@am__quote@
@AMDEP_TRUE@@am__include@ @am__quote@./$(DEPDIR)/cs_system_info.Plo@am__quote@
@AMDEP_TRUE@@am__include@ @am__quote@./$(DEPDIR)/cs_thermal_model.Plo@am__quote@
@AMDEP_TRUE@@am__include@ @am__quote@./$(DEPDIR)/cs_time_moment.Plo@am__quote@
@AMDEP_TRUE@@am__include@ @am__quote@./$(DEPDIR)/cs_time_plot.Plo@am__quote@
@AMDEP_TRUE@@am__include@ @am__quote@./$(DEPDIR)/cs_time_step.Plo@am__quote@
@AMDEP_TRUE@@am__include@ @am__quote@./$(DEPDIR)/cs_timer.Plo@am__quote@
@AMDEP_TRUE@@am__include@ @am__quote@./$(DEPDIR)/cs_tpar1d.Plo@am__quote@
@AMDEP_TRUE@@am__include@ @am__quote@./$(DEPDIR)/cs_turbomachinery.Plo@am__quote@
@AMDEP_TRUE@@am__include@ @am__quote@./$(DEPDIR)/cs_wall_functions.Plo@am__quote@
@AMDEP_TRUE@@am__include@ @am__quote@./$(DEPDIR)/libcs_paramedmem_la-cs_paramedmem_coupling.Plo@am__quote@
@AMDEP_TRUE@@am__include@ @am__quote@./$(DEPDIR)/libcscorep_la-cs_base.Plo@am__quote@
@AMDEP_TRUE@@am__include@ @am__quote@./$(DEPDIR)/libcsrenumber_la-cs_renumber.Plo@am__quote@

.c.o:
@am__fastdepCC_TRUE@	$(AM_V_CC)$(COMPILE) -MT $@ -MD -MP -MF $(DEPDIR)/$*.Tpo -c -o $@ $<
@am__fastdepCC_TRUE@	$(AM_V_at)$(am__mv) $(DEPDIR)/$*.Tpo $(DEPDIR)/$*.Po
@AMDEP_TRUE@@am__fastdepCC_FALSE@	$(AM_V_CC)source='$<' object='$@' libtool=no @AMDEPBACKSLASH@
@AMDEP_TRUE@@am__fastdepCC_FALSE@	DEPDIR=$(DEPDIR) $(CCDEPMODE) $(depcomp) @AMDEPBACKSLASH@
@am__fastdepCC_FALSE@	$(AM_V_CC@am__nodep@)$(COMPILE) -c -o $@ $<

.c.obj:
@am__fastdepCC_TRUE@	$(AM_V_CC)$(COMPILE) -MT $@ -MD -MP -MF $(DEPDIR)/$*.Tpo -c -o $@ `$(CYGPATH_W) '$<'`
@am__fastdepCC_TRUE@	$(AM_V_at)$(am__mv) $(DEPDIR)/$*.Tpo $(DEPDIR)/$*.Po
@AMDEP_TRUE@@am__fastdepCC_FALSE@	$(AM_V_CC)source='$<' object='$@' libtool=no @AMDEPBACKSLASH@
@AMDEP_TRUE@@am__fastdepCC_FALSE@	DEPDIR=$(DEPDIR) $(CCDEPMODE) $(depcomp) @AMDEPBACKSLASH@
@am__fastdepCC_FALSE@	$(AM_V_CC@am__nodep@)$(COMPILE) -c -o $@ `$(CYGPATH_W) '$<'`

.c.lo:
@am__fastdepCC_TRUE@	$(AM_V_CC)$(LTCOMPILE) -MT $@ -MD -MP -MF $(DEPDIR)/$*.Tpo -c -o $@ $<
@am__fastdepCC_TRUE@	$(AM_V_at)$(am__mv) $(DEPDIR)/$*.Tpo $(DEPDIR)/$*.Plo
@AMDEP_TRUE@@am__fastdepCC_FALSE@	$(AM_V_CC)source='$<' object='$@' libtool=yes @AMDEPBACKSLASH@
@AMDEP_TRUE@@am__fastdepCC_FALSE@	DEPDIR=$(DEPDIR) $(CCDEPMODE) $(depcomp) @AMDEPBACKSLASH@
@am__fastdepCC_FALSE@	$(AM_V_CC@am__nodep@)$(LTCOMPILE) -c -o $@ $<

libcscorep_la-cs_base.lo: cs_base.c
@am__fastdepCC_TRUE@	$(AM_V_CC)$(LIBTOOL) $(AM_V_lt) --tag=CC $(AM_LIBTOOLFLAGS) $(LIBTOOLFLAGS) --mode=compile $(CC) $(DEFS) $(DEFAULT_INCLUDES) $(INCLUDES) $(libcscorep_la_CPPFLAGS) $(CPPFLAGS) $(AM_CFLAGS) $(CFLAGS) -MT libcscorep_la-cs_base.lo -MD -MP -MF $(DEPDIR)/libcscorep_la-cs_base.Tpo -c -o libcscorep_la-cs_base.lo `test -f 'cs_base.c' || echo '$(srcdir)/'`cs_base.c
@am__fastdepCC_TRUE@	$(AM_V_at)$(am__mv) $(DEPDIR)/libcscorep_la-cs_base.Tpo $(DEPDIR)/libcscorep_la-cs_base.Plo
@AMDEP_TRUE@@am__fastdepCC_FALSE@	$(AM_V_CC)source='cs_base.c' object='libcscorep_la-cs_base.lo' libtool=yes @AMDEPBACKSLASH@
@AMDEP_TRUE@@am__fastdepCC_FALSE@	DEPDIR=$(DEPDIR) $(CCDEPMODE) $(depcomp) @AMDEPBACKSLASH@
@am__fastdepCC_FALSE@	$(AM_V_CC@am__nodep@)$(LIBTOOL) $(AM_V_lt) --tag=CC $(AM_LIBTOOLFLAGS) $(LIBTOOLFLAGS) --mode=compile $(CC) $(DEFS) $(DEFAULT_INCLUDES) $(INCLUDES) $(libcscorep_la_CPPFLAGS) $(CPPFLAGS) $(AM_CFLAGS) $(CFLAGS) -c -o libcscorep_la-cs_base.lo `test -f 'cs_base.c' || echo '$(srcdir)/'`cs_base.c

libcsrenumber_la-cs_renumber.lo: cs_renumber.c
@am__fastdepCC_TRUE@	$(AM_V_CC)$(LIBTOOL) $(AM_V_lt) --tag=CC $(AM_LIBTOOLFLAGS) $(LIBTOOLFLAGS) --mode=compile $(CC) $(DEFS) $(DEFAULT_INCLUDES) $(INCLUDES) $(libcsrenumber_la_CPPFLAGS) $(CPPFLAGS) $(AM_CFLAGS) $(CFLAGS) -MT libcsrenumber_la-cs_renumber.lo -MD -MP -MF $(DEPDIR)/libcsrenumber_la-cs_renumber.Tpo -c -o libcsrenumber_la-cs_renumber.lo `test -f 'cs_renumber.c' || echo '$(srcdir)/'`cs_renumber.c
@am__fastdepCC_TRUE@	$(AM_V_at)$(am__mv) $(DEPDIR)/libcsrenumber_la-cs_renumber.Tpo $(DEPDIR)/libcsrenumber_la-cs_renumber.Plo
@AMDEP_TRUE@@am__fastdepCC_FALSE@	$(AM_V_CC)source='cs_renumber.c' object='libcsrenumber_la-cs_renumber.lo' libtool=yes @AMDEPBACKSLASH@
@AMDEP_TRUE@@am__fastdepCC_FALSE@	DEPDIR=$(DEPDIR) $(CCDEPMODE) $(depcomp) @AMDEPBACKSLASH@
@am__fastdepCC_FALSE@	$(AM_V_CC@am__nodep@)$(LIBTOOL) $(AM_V_lt) --tag=CC $(AM_LIBTOOLFLAGS) $(LIBTOOLFLAGS) --mode=compile $(CC) $(DEFS) $(DEFAULT_INCLUDES) $(INCLUDES) $(libcsrenumber_la_CPPFLAGS) $(CPPFLAGS) $(AM_CFLAGS) $(CFLAGS) -c -o libcsrenumber_la-cs_renumber.lo `test -f 'cs_renumber.c' || echo '$(srcdir)/'`cs_renumber.c

.cxx.o:
@am__fastdepCXX_TRUE@	$(AM_V_CXX)$(CXXCOMPILE) -MT $@ -MD -MP -MF $(DEPDIR)/$*.Tpo -c -o $@ $<
@am__fastdepCXX_TRUE@	$(AM_V_at)$(am__mv) $(DEPDIR)/$*.Tpo $(DEPDIR)/$*.Po
@AMDEP_TRUE@@am__fastdepCXX_FALSE@	$(AM_V_CXX)source='$<' object='$@' libtool=no @AMDEPBACKSLASH@
@AMDEP_TRUE@@am__fastdepCXX_FALSE@	DEPDIR=$(DEPDIR) $(CXXDEPMODE) $(depcomp) @AMDEPBACKSLASH@
@am__fastdepCXX_FALSE@	$(AM_V_CXX@am__nodep@)$(CXXCOMPILE) -c -o $@ $<

.cxx.obj:
@am__fastdepCXX_TRUE@	$(AM_V_CXX)$(CXXCOMPILE) -MT $@ -MD -MP -MF $(DEPDIR)/$*.Tpo -c -o $@ `$(CYGPATH_W) '$<'`
@am__fastdepCXX_TRUE@	$(AM_V_at)$(am__mv) $(DEPDIR)/$*.Tpo $(DEPDIR)/$*.Po
@AMDEP_TRUE@@am__fastdepCXX_FALSE@	$(AM_V_CXX)source='$<' object='$@' libtool=no @AMDEPBACKSLASH@
@AMDEP_TRUE@@am__fastdepCXX_FALSE@	DEPDIR=$(DEPDIR) $(CXXDEPMODE) $(depcomp) @AMDEPBACKSLASH@
@am__fastdepCXX_FALSE@	$(AM_V_CXX@am__nodep@)$(CXXCOMPILE) -c -o $@ `$(CYGPATH_W) '$<'`

.cxx.lo:
@am__fastdepCXX_TRUE@	$(AM_V_CXX)$(LTCXXCOMPILE) -MT $@ -MD -MP -MF $(DEPDIR)/$*.Tpo -c -o $@ $<
@am__fastdepCXX_TRUE@	$(AM_V_at)$(am__mv) $(DEPDIR)/$*.Tpo $(DEPDIR)/$*.Plo
@AMDEP_TRUE@@am__fastdepCXX_FALSE@	$(AM_V_CXX)source='$<' object='$@' libtool=yes @AMDEPBACKSLASH@
@AMDEP_TRUE@@am__fastdepCXX_FALSE@	DEPDIR=$(DEPDIR) $(CXXDEPMODE) $(depcomp) @AMDEPBACKSLASH@
@am__fastdepCXX_FALSE@	$(AM_V_CXX@am__nodep@)$(LTCXXCOMPILE) -c -o $@ $<

cs_eos_la-cs_eos.lo: cs_eos.cxx
@am__fastdepCXX_TRUE@	$(AM_V_CXX)$(LIBTOOL) $(AM_V_lt) --tag=CXX $(AM_LIBTOOLFLAGS) $(LIBTOOLFLAGS) --mode=compile $(CXX) $(DEFS) $(DEFAULT_INCLUDES) $(INCLUDES) $(cs_eos_la_CPPFLAGS) $(CPPFLAGS) $(AM_CXXFLAGS) $(CXXFLAGS) -MT cs_eos_la-cs_eos.lo -MD -MP -MF $(DEPDIR)/cs_eos_la-cs_eos.Tpo -c -o cs_eos_la-cs_eos.lo `test -f 'cs_eos.cxx' || echo '$(srcdir)/'`cs_eos.cxx
@am__fastdepCXX_TRUE@	$(AM_V_at)$(am__mv) $(DEPDIR)/cs_eos_la-cs_eos.Tpo $(DEPDIR)/cs_eos_la-cs_eos.Plo
@AMDEP_TRUE@@am__fastdepCXX_FALSE@	$(AM_V_CXX)source='cs_eos.cxx' object='cs_eos_la-cs_eos.lo' libtool=yes @AMDEPBACKSLASH@
@AMDEP_TRUE@@am__fastdepCXX_FALSE@	DEPDIR=$(DEPDIR) $(CXXDEPMODE) $(depcomp) @AMDEPBACKSLASH@
@am__fastdepCXX_FALSE@	$(AM_V_CXX@am__nodep@)$(LIBTOOL) $(AM_V_lt) --tag=CXX $(AM_LIBTOOLFLAGS) $(LIBTOOLFLAGS) --mode=compile $(CXX) $(DEFS) $(DEFAULT_INCLUDES) $(INCLUDES) $(cs_eos_la_CPPFLAGS) $(CPPFLAGS) $(AM_CXXFLAGS) $(CXXFLAGS) -c -o cs_eos_la-cs_eos.lo `test -f 'cs_eos.cxx' || echo '$(srcdir)/'`cs_eos.cxx

libcs_paramedmem_la-cs_paramedmem_coupling.lo: cs_paramedmem_coupling.cxx
@am__fastdepCXX_TRUE@	$(AM_V_CXX)$(LIBTOOL) $(AM_V_lt) --tag=CXX $(AM_LIBTOOLFLAGS) $(LIBTOOLFLAGS) --mode=compile $(CXX) $(DEFS) $(DEFAULT_INCLUDES) $(INCLUDES) $(libcs_paramedmem_la_CPPFLAGS) $(CPPFLAGS) $(AM_CXXFLAGS) $(CXXFLAGS) -MT libcs_paramedmem_la-cs_paramedmem_coupling.lo -MD -MP -MF $(DEPDIR)/libcs_paramedmem_la-cs_paramedmem_coupling.Tpo -c -o libcs_paramedmem_la-cs_paramedmem_coupling.lo `test -f 'cs_paramedmem_coupling.cxx' || echo '$(srcdir)/'`cs_paramedmem_coupling.cxx
@am__fastdepCXX_TRUE@	$(AM_V_at)$(am__mv) $(DEPDIR)/libcs_paramedmem_la-cs_paramedmem_coupling.Tpo $(DEPDIR)/libcs_paramedmem_la-cs_paramedmem_coupling.Plo
@AMDEP_TRUE@@am__fastdepCXX_FALSE@	$(AM_V_CXX)source='cs_paramedmem_coupling.cxx' object='libcs_paramedmem_la-cs_paramedmem_coupling.lo' libtool=yes @AMDEPBACKSLASH@
@AMDEP_TRUE@@am__fastdepCXX_FALSE@	DEPDIR=$(DEPDIR) $(CXXDEPMODE) $(depcomp) @AMDEPBACKSLASH@
@am__fastdepCXX_FALSE@	$(AM_V_CXX@am__nodep@)$(LIBTOOL) $(AM_V_lt) --tag=CXX $(AM_LIBTOOLFLAGS) $(LIBTOOLFLAGS) --mode=compile $(CXX) $(DEFS) $(DEFAULT_INCLUDES) $(INCLUDES) $(libcs_paramedmem_la_CPPFLAGS) $(CPPFLAGS) $(AM_CXXFLAGS) $(CXXFLAGS) -c -o libcs_paramedmem_la-cs_paramedmem_coupling.lo `test -f 'cs_paramedmem_coupling.cxx' || echo '$(srcdir)/'`cs_paramedmem_coupling.cxx

.f90.o:
	$(AM_V_FC)$(FCCOMPILE) -c -o $@ $<

.f90.obj:
	$(AM_V_FC)$(FCCOMPILE) -c -o $@ `$(CYGPATH_W) '$<'`

.f90.lo:
	$(AM_V_FC)$(LTFCCOMPILE) -c -o $@ $<

mostlyclean-libtool:
	-rm -f *.lo

clean-libtool:
	-rm -rf .libs _libs
install-pkgincludeHEADERS: $(pkginclude_HEADERS)
	@$(NORMAL_INSTALL)
	@list='$(pkginclude_HEADERS)'; test -n "$(pkgincludedir)" || list=; \
	if test -n "$$list"; then \
	  echo " $(MKDIR_P) '$(DESTDIR)$(pkgincludedir)'"; \
	  $(MKDIR_P) "$(DESTDIR)$(pkgincludedir)" || exit 1; \
	fi; \
	for p in $$list; do \
	  if test -f "$$p"; then d=; else d="$(srcdir)/"; fi; \
	  echo "$$d$$p"; \
	done | $(am__base_list) | \
	while read files; do \
	  echo " $(INSTALL_HEADER) $$files '$(DESTDIR)$(pkgincludedir)'"; \
	  $(INSTALL_HEADER) $$files "$(DESTDIR)$(pkgincludedir)" || exit $$?; \
	done

uninstall-pkgincludeHEADERS:
	@$(NORMAL_UNINSTALL)
	@list='$(pkginclude_HEADERS)'; test -n "$(pkgincludedir)" || list=; \
	files=`for p in $$list; do echo $$p; done | sed -e 's|^.*/||'`; \
	dir='$(DESTDIR)$(pkgincludedir)'; $(am__uninstall_files_from_dir)

ID: $(am__tagged_files)
	$(am__define_uniq_tagged_files); mkid -fID $$unique
tags: tags-am
TAGS: tags

tags-am: $(TAGS_DEPENDENCIES) $(am__tagged_files)
	set x; \
	here=`pwd`; \
	$(am__define_uniq_tagged_files); \
	shift; \
	if test -z "$(ETAGS_ARGS)$$*$$unique"; then :; else \
	  test -n "$$unique" || unique=$$empty_fix; \
	  if test $$# -gt 0; then \
	    $(ETAGS) $(ETAGSFLAGS) $(AM_ETAGSFLAGS) $(ETAGS_ARGS) \
	      "$$@" $$unique; \
	  else \
	    $(ETAGS) $(ETAGSFLAGS) $(AM_ETAGSFLAGS) $(ETAGS_ARGS) \
	      $$unique; \
	  fi; \
	fi
ctags: ctags-am

CTAGS: ctags
ctags-am: $(TAGS_DEPENDENCIES) $(am__tagged_files)
	$(am__define_uniq_tagged_files); \
	test -z "$(CTAGS_ARGS)$$unique" \
	  || $(CTAGS) $(CTAGSFLAGS) $(AM_CTAGSFLAGS) $(CTAGS_ARGS) \
	     $$unique

GTAGS:
	here=`$(am__cd) $(top_builddir) && pwd` \
	  && $(am__cd) $(top_srcdir) \
	  && gtags -i $(GTAGS_ARGS) "$$here"
cscopelist: cscopelist-am

cscopelist-am: $(am__tagged_files)
	list='$(am__tagged_files)'; \
	case "$(srcdir)" in \
	  [\\/]* | ?:[\\/]*) sdir="$(srcdir)" ;; \
	  *) sdir=$(subdir)/$(srcdir) ;; \
	esac; \
	for i in $$list; do \
	  if test -f "$$i"; then \
	    echo "$(subdir)/$$i"; \
	  else \
	    echo "$$sdir/$$i"; \
	  fi; \
	done >> $(top_builddir)/cscope.files

distclean-tags:
	-rm -f TAGS ID GTAGS GRTAGS GSYMS GPATH tags

distdir: $(DISTFILES)
	@srcdirstrip=`echo "$(srcdir)" | sed 's/[].[^$$\\*]/\\\\&/g'`; \
	topsrcdirstrip=`echo "$(top_srcdir)" | sed 's/[].[^$$\\*]/\\\\&/g'`; \
	list='$(DISTFILES)'; \
	  dist_files=`for file in $$list; do echo $$file; done | \
	  sed -e "s|^$$srcdirstrip/||;t" \
	      -e "s|^$$topsrcdirstrip/|$(top_builddir)/|;t"`; \
	case $$dist_files in \
	  */*) $(MKDIR_P) `echo "$$dist_files" | \
			   sed '/\//!d;s|^|$(distdir)/|;s,/[^/]*$$,,' | \
			   sort -u` ;; \
	esac; \
	for file in $$dist_files; do \
	  if test -f $$file || test -d $$file; then d=.; else d=$(srcdir); fi; \
	  if test -d $$d/$$file; then \
	    dir=`echo "/$$file" | sed -e 's,/[^/]*$$,,'`; \
	    if test -d "$(distdir)/$$file"; then \
	      find "$(distdir)/$$file" -type d ! -perm -700 -exec chmod u+rwx {} \;; \
	    fi; \
	    if test -d $(srcdir)/$$file && test $$d != $(srcdir); then \
	      cp -fpR $(srcdir)/$$file "$(distdir)$$dir" || exit 1; \
	      find "$(distdir)/$$file" -type d ! -perm -700 -exec chmod u+rwx {} \;; \
	    fi; \
	    cp -fpR $$d/$$file "$(distdir)$$dir" || exit 1; \
	  else \
	    test -f "$(distdir)/$$file" \
	    || cp -p $$d/$$file "$(distdir)/$$file" \
	    || exit 1; \
	  fi; \
	done
check-am: all-am
check: check-am
all-am: Makefile $(LTLIBRARIES) $(HEADERS)
installdirs:
	for dir in "$(DESTDIR)$(libdir)" "$(DESTDIR)$(pkglibdir)" "$(DESTDIR)$(pkgincludedir)"; do \
	  test -z "$$dir" || $(MKDIR_P) "$$dir"; \
	done
install: install-am
install-exec: install-exec-am
install-data: install-data-am
uninstall: uninstall-am

install-am: all-am
	@$(MAKE) $(AM_MAKEFLAGS) install-exec-am install-data-am

installcheck: installcheck-am
install-strip:
	if test -z '$(STRIP)'; then \
	  $(MAKE) $(AM_MAKEFLAGS) INSTALL_PROGRAM="$(INSTALL_STRIP_PROGRAM)" \
	    install_sh_PROGRAM="$(INSTALL_STRIP_PROGRAM)" INSTALL_STRIP_FLAG=-s \
	      install; \
	else \
	  $(MAKE) $(AM_MAKEFLAGS) INSTALL_PROGRAM="$(INSTALL_STRIP_PROGRAM)" \
	    install_sh_PROGRAM="$(INSTALL_STRIP_PROGRAM)" INSTALL_STRIP_FLAG=-s \
	    "INSTALL_PROGRAM_ENV=STRIPPROG='$(STRIP)'" install; \
	fi
mostlyclean-generic:

clean-generic:

distclean-generic:
	-test -z "$(CONFIG_CLEAN_FILES)" || rm -f $(CONFIG_CLEAN_FILES)
	-test . = "$(srcdir)" || test -z "$(CONFIG_CLEAN_VPATH_FILES)" || rm -f $(CONFIG_CLEAN_VPATH_FILES)

maintainer-clean-generic:
	@echo "This command is intended for maintainers to use"
	@echo "it deletes files that may require special tools to rebuild."
clean: clean-am

clean-am: clean-generic clean-libLTLIBRARIES clean-libtool clean-local \
	clean-noinstLTLIBRARIES clean-pkglibLTLIBRARIES mostlyclean-am

distclean: distclean-am
	-rm -rf ./$(DEPDIR)
	-rm -f Makefile
distclean-am: clean-am distclean-compile distclean-generic \
	distclean-tags

dvi: dvi-am

dvi-am:

html: html-am

html-am:

info: info-am

info-am:

install-data-am: install-pkgincludeHEADERS

install-dvi: install-dvi-am

install-dvi-am:

install-exec-am: install-libLTLIBRARIES install-pkglibLTLIBRARIES

install-html: install-html-am

install-html-am:

install-info: install-info-am

install-info-am:

install-man:

install-pdf: install-pdf-am

install-pdf-am:

install-ps: install-ps-am

install-ps-am:

installcheck-am:

maintainer-clean: maintainer-clean-am
	-rm -rf ./$(DEPDIR)
	-rm -f Makefile
maintainer-clean-am: distclean-am maintainer-clean-generic

mostlyclean: mostlyclean-am

mostlyclean-am: mostlyclean-compile mostlyclean-generic \
	mostlyclean-libtool

pdf: pdf-am

pdf-am:

ps: ps-am

ps-am:

uninstall-am: uninstall-libLTLIBRARIES uninstall-pkgincludeHEADERS \
	uninstall-pkglibLTLIBRARIES

.MAKE: install-am install-strip

.PHONY: CTAGS GTAGS TAGS all all-am check check-am clean clean-generic \
	clean-libLTLIBRARIES clean-libtool clean-local \
	clean-noinstLTLIBRARIES clean-pkglibLTLIBRARIES cscopelist-am \
	ctags ctags-am distclean distclean-compile distclean-generic \
	distclean-libtool distclean-tags distdir dvi dvi-am html \
	html-am info info-am install install-am install-data \
	install-data-am install-dvi install-dvi-am install-exec \
	install-exec-am install-html install-html-am install-info \
	install-info-am install-libLTLIBRARIES install-man install-pdf \
	install-pdf-am install-pkgincludeHEADERS \
	install-pkglibLTLIBRARIES install-ps install-ps-am \
	install-strip installcheck installcheck-am installdirs \
	maintainer-clean maintainer-clean-generic mostlyclean \
	mostlyclean-compile mostlyclean-generic mostlyclean-libtool \
	pdf pdf-am ps ps-am tags tags-am uninstall uninstall-am \
	uninstall-libLTLIBRARIES uninstall-pkgincludeHEADERS \
	uninstall-pkglibLTLIBRARIES


clean-local:
	-rm -f *__genmod.f90 *__genmod.mod

# Tell versions [3.59,3.63) of GNU make to not export all variables.
# Otherwise a system limit (for SysV at least) may be exceeded.
.NOEXPORT:
